version 2
run NetK-0-20200917-15:41:50-10668
attr configname NetK
attr datetime 20200917-15:41:50
attr experiment NetK
attr inifile omnetpp.ini
attr iterationvars "$seed=1, $alpha=5, $mVar=5, $LB=true, $LinkPre=true"
attr iterationvarsf seed=1,alpha=5,mVar=5,LB=true,LinkPre=true-
attr measurement "$seed=1, $alpha=5, $mVar=5, $LB=true, $LinkPre=true"
attr network networks.NetK
attr processid 10668
attr repetition 0
attr replication #0
attr resultdir results
attr runnumber 0
attr seedset 1
itervar LB true
itervar LinkPre true
itervar alpha 5
itervar mVar 5
itervar seed 1
param **.num_of_hosts 25
param **.num_of_terminals 2
param *.rte[*].app.hasApp false
param *.terminal[*].radius 1500m
param *.terminal[*].frac 0.8
param *.rte[*].maxTerminalNumber 10
param *.rte[*].maxHopCountForTerminalList 2
param **.maxX 10000m
param **.maxY 10000m
param **.minX 0m
param **.minY 0m
param *.rte[*].mobility.typename "\"TurtleMobility\""
param *.rte[*].mobilityType "\"TurtleMobility\""
param *.rte[0].mobility.turtleScript "xmldoc(\"mobility.xml\", \"movements//movement[@id='0']\")"
param *.rte[1].mobility.turtleScript "xmldoc(\"mobility.xml\", \"movements//movement[@id='1']\")"
param *.rte[2].mobility.turtleScript "xmldoc(\"mobility.xml\", \"movements//movement[@id='2']\")"
param *.rte[3].mobility.turtleScript "xmldoc(\"mobility.xml\", \"movements//movement[@id='3']\")"
param *.rte[4].mobility.turtleScript "xmldoc(\"mobility.xml\", \"movements//movement[@id='4']\")"
param *.rte[5].mobility.turtleScript "xmldoc(\"mobility.xml\", \"movements//movement[@id='5']\")"
param *.rte[6].mobility.turtleScript "xmldoc(\"mobility.xml\", \"movements//movement[@id='6']\")"
param *.rte[7].mobility.turtleScript "xmldoc(\"mobility.xml\", \"movements//movement[@id='7']\")"
param *.rte[8].mobility.turtleScript "xmldoc(\"mobility.xml\", \"movements//movement[@id='8']\")"
param *.rte[9].mobility.turtleScript "xmldoc(\"mobility.xml\", \"movements//movement[@id='9']\")"
param *.rte[10].mobility.turtleScript "xmldoc(\"mobility.xml\", \"movements//movement[@id='10']\")"
param *.rte[11].mobility.turtleScript "xmldoc(\"mobility.xml\", \"movements//movement[@id='11']\")"
param *.rte[12].mobility.turtleScript "xmldoc(\"mobility.xml\", \"movements//movement[@id='12']\")"
param *.rte[13].mobility.turtleScript "xmldoc(\"mobility.xml\", \"movements//movement[@id='13']\")"
param *.rte[14].mobility.turtleScript "xmldoc(\"mobility.xml\", \"movements//movement[@id='14']\")"
param *.rte[15].mobility.turtleScript "xmldoc(\"mobility.xml\", \"movements//movement[@id='15']\")"
param *.rte[16].mobility.turtleScript "xmldoc(\"mobility.xml\", \"movements//movement[@id='16']\")"
param *.rte[17].mobility.turtleScript "xmldoc(\"mobility.xml\", \"movements//movement[@id='17']\")"
param *.rte[18].mobility.turtleScript "xmldoc(\"mobility.xml\", \"movements//movement[@id='18']\")"
param *.rte[19].mobility.turtleScript "xmldoc(\"mobility.xml\", \"movements//movement[@id='19']\")"
param *.rte[20].mobility.turtleScript "xmldoc(\"mobility.xml\", \"movements//movement[@id='20']\")"
param *.rte[21].mobility.turtleScript "xmldoc(\"mobility.xml\", \"movements//movement[@id='21']\")"
param *.rte[22].mobility.turtleScript "xmldoc(\"mobility.xml\", \"movements//movement[@id='22']\")"
param *.rte[23].mobility.turtleScript "xmldoc(\"mobility.xml\", \"movements//movement[@id='23']\")"
param *.rte[24].mobility.turtleScript "xmldoc(\"mobility.xml\", \"movements//movement[@id='24']\")"
param *.terminal[*].mobility.typename "\"StationaryMobility\""
param *.terminal[*].mobilityType "\"StationaryMobility\""
param **.alpha 5
param **.m_var 5
param **.changeRate 25s
param **.terminal[*].app.packetLength "1500 bytes"
param **.terminal[*].app.sendIaTime exponential(150ms)
param **.terminal[*].app.burst_next_event exponential(25s)
param **.terminal[*].app.burst_next_interval exponential(40ms)
param **.terminal[*].app.burst_size "intuniform (80,320)"
param **.rte[*].frameCapacity 7000
param **.datarate 5Mbps
param **.load_balance_mode true
param **.load_balance_link_prediction true
param **.load_threshold 85
param **.rte[*].appType "\"App\""

scalar NetK.rte[0].grid x 1000
scalar NetK.rte[0].grid y 1000
scalar NetK.rte[0].grid z 0
scalar NetK.rte[1].grid x 3000
scalar NetK.rte[1].grid y 1000
scalar NetK.rte[1].grid z 0
scalar NetK.rte[2].grid x 5000
scalar NetK.rte[2].grid y 1000
scalar NetK.rte[2].grid z 0
scalar NetK.rte[3].grid x 7000
scalar NetK.rte[3].grid y 1000
scalar NetK.rte[3].grid z 0
scalar NetK.rte[4].grid x 9000
scalar NetK.rte[4].grid y 1000
scalar NetK.rte[4].grid z 0
scalar NetK.rte[5].grid x 1000
scalar NetK.rte[5].grid y 3000
scalar NetK.rte[5].grid z 0
scalar NetK.rte[6].grid x 3000
scalar NetK.rte[6].grid y 3000
scalar NetK.rte[6].grid z 0
scalar NetK.rte[7].grid x 5000
scalar NetK.rte[7].grid y 3000
scalar NetK.rte[7].grid z 0
scalar NetK.rte[8].grid x 7000
scalar NetK.rte[8].grid y 3000
scalar NetK.rte[8].grid z 0
scalar NetK.rte[9].grid x 9000
scalar NetK.rte[9].grid y 3000
scalar NetK.rte[9].grid z 0
scalar NetK.rte[10].grid x 1000
scalar NetK.rte[10].grid y 5000
scalar NetK.rte[10].grid z 0
scalar NetK.rte[11].grid x 3000
scalar NetK.rte[11].grid y 5000
scalar NetK.rte[11].grid z 0
scalar NetK.rte[12].grid x 5000
scalar NetK.rte[12].grid y 5000
scalar NetK.rte[12].grid z 0
scalar NetK.rte[13].grid x 7000
scalar NetK.rte[13].grid y 5000
scalar NetK.rte[13].grid z 0
scalar NetK.rte[14].grid x 9000
scalar NetK.rte[14].grid y 5000
scalar NetK.rte[14].grid z 0
scalar NetK.rte[15].grid x 1000
scalar NetK.rte[15].grid y 7000
scalar NetK.rte[15].grid z 0
scalar NetK.rte[16].grid x 3000
scalar NetK.rte[16].grid y 7000
scalar NetK.rte[16].grid z 0
scalar NetK.rte[17].grid x 5000
scalar NetK.rte[17].grid y 7000
scalar NetK.rte[17].grid z 0
scalar NetK.rte[18].grid x 7000
scalar NetK.rte[18].grid y 7000
scalar NetK.rte[18].grid z 0
scalar NetK.rte[19].grid x 9000
scalar NetK.rte[19].grid y 7000
scalar NetK.rte[19].grid z 0
scalar NetK.rte[20].grid x 1000
scalar NetK.rte[20].grid y 9000
scalar NetK.rte[20].grid z 0
scalar NetK.rte[21].grid x 3000
scalar NetK.rte[21].grid y 9000
scalar NetK.rte[21].grid z 0
scalar NetK.rte[22].grid x 5000
scalar NetK.rte[22].grid y 9000
scalar NetK.rte[22].grid z 0
scalar NetK.rte[23].grid x 7000
scalar NetK.rte[23].grid y 9000
scalar NetK.rte[23].grid z 0
scalar NetK.rte[24].grid x 9000
scalar NetK.rte[24].grid y 9000
scalar NetK.rte[24].grid z 0
scalar NetK.rte[0].app #sent -1.232838371571e+308
scalar NetK.rte[0].app #received -1.232838371571e+308
statistic NetK.rte[0].app "hop count"
field count 0
field mean nan
field stddev nan
field min nan
field max nan
field sum 0
field sqrsum 0
bin	-inf	0
bin	0	0
bin	1	0
scalar NetK.rte[0].app hopCount:mean nan
attr interpolationmode none
attr title "hop count of arrived packets, mean"
scalar NetK.rte[0].app hopCount:max nan
attr interpolationmode none
attr title "hop count of arrived packets, max"
scalar NetK.rte[0].app hopCount:count 0
attr interpolationmode none
attr title "hop count of arrived packets, count"
statistic NetK.rte[0].app hopCount:histogram
field count 0
field mean nan
field stddev nan
field min nan
field max nan
field sum 0
field sqrsum 0
attr interpolationmode none
attr title "hop count of arrived packets, histogram"
bin	-inf	0
bin	0	0
bin	1	0
scalar NetK.rte[0].app endToEndDelay:mean nan
attr interpolationmode none
attr title "end-to-end delay of arrived packets, mean"
attr unit s
scalar NetK.rte[0].app endToEndDelay:max nan
attr interpolationmode none
attr title "end-to-end delay of arrived packets, max"
attr unit s
scalar NetK.rte[0].app endToEndDelay:count 0
attr interpolationmode none
attr title "end-to-end delay of arrived packets, count"
attr unit s
scalar NetK.rte[0].routing "Terminal Messages dropped due to wrong prediction" 0
statistic NetK.rte[0].routing TopoLinkCounter:histogram
field count 25
field mean 103.32
field stddev 7.3751836135335
field min 90
field max 117
field sum 2583
field sqrsum 268181
attr interpolationmode none
attr title "Number of links enabled in Topology, histogram"
bin	-inf	0
bin	83	0
bin	84	0
bin	85	0
bin	86	0
bin	87	0
bin	88	0
bin	89	0
bin	90	1
bin	91	1
bin	92	1
bin	93	0
bin	94	0
bin	95	0
bin	96	1
bin	97	2
bin	98	0
bin	99	2
bin	100	1
bin	101	2
bin	102	1
bin	103	1
bin	104	1
bin	105	2
bin	106	0
bin	107	1
bin	108	1
bin	109	1
bin	110	1
bin	111	2
bin	112	0
bin	113	1
bin	114	0
bin	115	1
bin	116	0
bin	117	1
bin	118	0
bin	119	0
bin	120	0
bin	121	0
bin	122	0
bin	123	0
bin	124	0
scalar NetK.rte[0].routing TopoLinkCounter:mean 103.32
attr interpolationmode none
attr title "Number of links enabled in Topology, mean"
scalar NetK.rte[0].routing TopoLinkCounter:max 117
attr interpolationmode none
attr title "Number of links enabled in Topology, max"
scalar NetK.rte[0].routing TopoLinkCounter:count 25
attr interpolationmode none
attr title "Number of links enabled in Topology, count"
statistic NetK.rte[0].routing outputIf:histogram
field count 0
field mean nan
field stddev nan
field min nan
field max nan
field sum 0
field sqrsum 0
attr interpolationmode none
attr title "output interface for each routed packet, histogram"
bin	-inf	0
bin	0	0
bin	1	0
scalar NetK.rte[0].routing drop:count 0
attr interpolationmode none
attr title "dropped packet byte length, count"
attr unit bytes
scalar NetK.rte[0].routing drop:sum 0
attr interpolationmode none
attr title "dropped packet byte length, sum"
attr unit bytes
statistic NetK.rte[0].routing hopCount:histogram
field count 0
field mean nan
field stddev nan
field min nan
field max nan
field sum 0
field sqrsum 0
attr interpolationmode none
attr title "count number of hops for packet, histogram"
bin	-inf	0
bin	0	0
bin	1	0
scalar NetK.rte[0].routing hopCount:mean nan
attr interpolationmode none
attr title "count number of hops for packet, mean"
scalar NetK.rte[0].routing hopCount:max nan
attr interpolationmode none
attr title "count number of hops for packet, max"
scalar NetK.rte[0].routing hopCount:count 0
attr interpolationmode none
attr title "count number of hops for packet, count"
statistic NetK.rte[0].queue[0] "drop count"
field count 385
field mean 193
field stddev 111.28417078213
field min 1
field max 385
field sum 74305
field sqrsum 19096385
bin	-inf	0
bin	0	9
bin	10	10
bin	20	10
bin	30	10
bin	40	10
bin	50	10
bin	60	10
bin	70	10
bin	80	10
bin	90	10
bin	100	10
bin	110	10
bin	120	10
bin	130	10
bin	140	10
bin	150	10
bin	160	10
bin	170	10
bin	180	10
bin	190	10
bin	200	10
bin	210	10
bin	220	10
bin	230	10
bin	240	10
bin	250	10
bin	260	10
bin	270	10
bin	280	10
bin	290	10
bin	300	10
bin	310	10
bin	320	10
bin	330	10
bin	340	10
bin	350	10
bin	360	10
bin	370	10
bin	380	6
bin	390	0
bin	400	0
bin	410	0
bin	420	0
bin	430	0
bin	440	0
bin	450	0
bin	460	0
bin	470	0
bin	480	0
bin	490	0
scalar NetK.rte[0].queue[0] rxBytes:count 16618
attr interpolationmode none
attr title "received packet byte length, count"
attr unit bytes
scalar NetK.rte[0].queue[0] rxBytes:sum 24927000
attr interpolationmode none
attr title "received packet byte length, sum"
attr unit bytes
statistic NetK.rte[0].queue[0] rxBytes:histogram
field count 16618
field mean 1500
field stddev 0
field min 1500
field max 1500
field sum 24927000
field sqrsum 37390500000
attr interpolationmode none
attr title "received packet byte length, histogram"
attr unit bytes
bin	-inf	0
bin	1499	0
bin	1500	16618
bin	1501	0
scalar NetK.rte[0].queue[0] txBytes:count 17069
attr interpolationmode none
attr title "transmitting packet byte length, count"
attr unit bytes
scalar NetK.rte[0].queue[0] txBytes:sum 25603500
attr interpolationmode none
attr title "transmitting packet byte length, sum"
attr unit bytes
statistic NetK.rte[0].queue[0] txBytes:histogram
field count 17069
field mean 1500
field stddev 0
field min 1500
field max 1500
field sum 25603500
field sqrsum 38405250000
attr interpolationmode none
attr title "transmitting packet byte length, histogram"
attr unit bytes
bin	-inf	0
bin	1499	0
bin	1500	17069
bin	1501	0
scalar NetK.rte[0].queue[0] busy:timeavg 0.068258935266189
attr interpolationmode sample-hold
attr title "server busy state, timeavg"
scalar NetK.rte[0].queue[0] qlen:timeavg 0.043906777492302
attr interpolationmode sample-hold
attr title "queue length, timeavg"
scalar NetK.rte[0].queue[0] qlen:max 5
attr interpolationmode sample-hold
attr title "queue length, max"
scalar NetK.rte[0].queue[0] drop:count 385
attr interpolationmode none
attr title "dropped packet byte length, count"
attr unit bytes
scalar NetK.rte[0].queue[0] drop:sum 577500
attr interpolationmode none
attr title "dropped packet byte length, sum"
attr unit bytes
statistic NetK.rte[0].queue[1] "drop count"
field count 0
field mean nan
field stddev nan
field min nan
field max nan
field sum 0
field sqrsum 0
bin	-inf	0
bin	0	0
bin	1	0
scalar NetK.rte[0].queue[1] rxBytes:count 924
attr interpolationmode none
attr title "received packet byte length, count"
attr unit bytes
scalar NetK.rte[0].queue[1] rxBytes:sum 1386000
attr interpolationmode none
attr title "received packet byte length, sum"
attr unit bytes
statistic NetK.rte[0].queue[1] rxBytes:histogram
field count 924
field mean 1500
field stddev 0
field min 1500
field max 1500
field sum 1386000
field sqrsum 2079000000
attr interpolationmode none
attr title "received packet byte length, histogram"
attr unit bytes
bin	-inf	0
bin	1499	0
bin	1500	924
bin	1501	0
scalar NetK.rte[0].queue[1] txBytes:count 892
attr interpolationmode none
attr title "transmitting packet byte length, count"
attr unit bytes
scalar NetK.rte[0].queue[1] txBytes:sum 1338000
attr interpolationmode none
attr title "transmitting packet byte length, sum"
attr unit bytes
statistic NetK.rte[0].queue[1] txBytes:histogram
field count 892
field mean 1500
field stddev 0
field min 1500
field max 1500
field sum 1338000
field sqrsum 2007000000
attr interpolationmode none
attr title "transmitting packet byte length, histogram"
attr unit bytes
bin	-inf	0
bin	1499	0
bin	1500	892
bin	1501	0
scalar NetK.rte[0].queue[1] busy:timeavg 0.0035671082229442
attr interpolationmode sample-hold
attr title "server busy state, timeavg"
scalar NetK.rte[0].queue[1] qlen:timeavg 0
attr interpolationmode sample-hold
attr title "queue length, timeavg"
scalar NetK.rte[0].queue[1] qlen:max 0
attr interpolationmode sample-hold
attr title "queue length, max"
scalar NetK.rte[0].queue[1] drop:count 0
attr interpolationmode none
attr title "dropped packet byte length, count"
attr unit bytes
scalar NetK.rte[0].queue[1] drop:sum 0
attr interpolationmode none
attr title "dropped packet byte length, sum"
attr unit bytes
statistic NetK.rte[0].queue[2] "drop count"
field count 0
field mean nan
field stddev nan
field min nan
field max nan
field sum 0
field sqrsum 0
bin	-inf	0
bin	0	0
bin	1	0
scalar NetK.rte[0].queue[2] rxBytes:count 535
attr interpolationmode none
attr title "received packet byte length, count"
attr unit bytes
scalar NetK.rte[0].queue[2] rxBytes:sum 802500
attr interpolationmode none
attr title "received packet byte length, sum"
attr unit bytes
statistic NetK.rte[0].queue[2] rxBytes:histogram
field count 535
field mean 1500
field stddev 0
field min 1500
field max 1500
field sum 802500
field sqrsum 1203750000
attr interpolationmode none
attr title "received packet byte length, histogram"
attr unit bytes
bin	-inf	0
bin	1499	0
bin	1500	535
bin	1501	0
scalar NetK.rte[0].queue[2] txBytes:count 520
attr interpolationmode none
attr title "transmitting packet byte length, count"
attr unit bytes
scalar NetK.rte[0].queue[2] txBytes:sum 780000
attr interpolationmode none
attr title "transmitting packet byte length, sum"
attr unit bytes
statistic NetK.rte[0].queue[2] txBytes:histogram
field count 520
field mean 1500
field stddev 0
field min 1500
field max 1500
field sum 780000
field sqrsum 1170000000
attr interpolationmode none
attr title "transmitting packet byte length, histogram"
attr unit bytes
bin	-inf	0
bin	1499	0
bin	1500	520
bin	1501	0
scalar NetK.rte[0].queue[2] busy:timeavg 0.0020794801299675
attr interpolationmode sample-hold
attr title "server busy state, timeavg"
scalar NetK.rte[0].queue[2] qlen:timeavg 0
attr interpolationmode sample-hold
attr title "queue length, timeavg"
scalar NetK.rte[0].queue[2] qlen:max 0
attr interpolationmode sample-hold
attr title "queue length, max"
scalar NetK.rte[0].queue[2] drop:count 0
attr interpolationmode none
attr title "dropped packet byte length, count"
attr unit bytes
scalar NetK.rte[0].queue[2] drop:sum 0
attr interpolationmode none
attr title "dropped packet byte length, sum"
attr unit bytes
statistic NetK.rte[0].queue[3] "drop count"
field count 0
field mean nan
field stddev nan
field min nan
field max nan
field sum 0
field sqrsum 0
bin	-inf	0
bin	0	0
bin	1	0
scalar NetK.rte[0].queue[3] rxBytes:count 372
attr interpolationmode none
attr title "received packet byte length, count"
attr unit bytes
scalar NetK.rte[0].queue[3] rxBytes:sum 558000
attr interpolationmode none
attr title "received packet byte length, sum"
attr unit bytes
statistic NetK.rte[0].queue[3] rxBytes:histogram
field count 372
field mean 1500
field stddev 0
field min 1500
field max 1500
field sum 558000
field sqrsum 837000000
attr interpolationmode none
attr title "received packet byte length, histogram"
attr unit bytes
bin	-inf	0
bin	1499	0
bin	1500	372
bin	1501	0
scalar NetK.rte[0].queue[3] txBytes:count 377
attr interpolationmode none
attr title "transmitting packet byte length, count"
attr unit bytes
scalar NetK.rte[0].queue[3] txBytes:sum 565500
attr interpolationmode none
attr title "transmitting packet byte length, sum"
attr unit bytes
statistic NetK.rte[0].queue[3] txBytes:histogram
field count 377
field mean 1500
field stddev 0
field min 1500
field max 1500
field sum 565500
field sqrsum 848250000
attr interpolationmode none
attr title "transmitting packet byte length, histogram"
attr unit bytes
bin	-inf	0
bin	1499	0
bin	1500	377
bin	1501	0
scalar NetK.rte[0].queue[3] busy:timeavg 0.0015076230942264
attr interpolationmode sample-hold
attr title "server busy state, timeavg"
scalar NetK.rte[0].queue[3] qlen:timeavg 8.5477480629843e-006
attr interpolationmode sample-hold
attr title "queue length, timeavg"
scalar NetK.rte[0].queue[3] qlen:max 1
attr interpolationmode sample-hold
attr title "queue length, max"
scalar NetK.rte[0].queue[3] drop:count 0
attr interpolationmode none
attr title "dropped packet byte length, count"
attr unit bytes
scalar NetK.rte[0].queue[3] drop:sum 0
attr interpolationmode none
attr title "dropped packet byte length, sum"
attr unit bytes
statistic NetK.rte[0].queue[4] "drop count"
field count 0
field mean nan
field stddev nan
field min nan
field max nan
field sum 0
field sqrsum 0
bin	-inf	0
bin	0	0
bin	1	0
scalar NetK.rte[0].queue[4] rxBytes:count 1044
attr interpolationmode none
attr title "received packet byte length, count"
attr unit bytes
scalar NetK.rte[0].queue[4] rxBytes:sum 1566000
attr interpolationmode none
attr title "received packet byte length, sum"
attr unit bytes
statistic NetK.rte[0].queue[4] rxBytes:histogram
field count 1044
field mean 1500
field stddev 0
field min 1500
field max 1500
field sum 1566000
field sqrsum 2349000000
attr interpolationmode none
attr title "received packet byte length, histogram"
attr unit bytes
bin	-inf	0
bin	1499	0
bin	1500	1044
bin	1501	0
scalar NetK.rte[0].queue[4] txBytes:count 1081
attr interpolationmode none
attr title "transmitting packet byte length, count"
attr unit bytes
scalar NetK.rte[0].queue[4] txBytes:sum 1621500
attr interpolationmode none
attr title "transmitting packet byte length, sum"
attr unit bytes
statistic NetK.rte[0].queue[4] txBytes:histogram
field count 1081
field mean 1500
field stddev 0
field min 1500
field max 1500
field sum 1621500
field sqrsum 2432250000
attr interpolationmode none
attr title "transmitting packet byte length, histogram"
attr unit bytes
bin	-inf	0
bin	1499	0
bin	1500	1081
bin	1501	0
scalar NetK.rte[0].queue[4] busy:timeavg 0.0043229192701825
attr interpolationmode sample-hold
attr title "server busy state, timeavg"
scalar NetK.rte[0].queue[4] qlen:timeavg 3.7382637673915e-005
attr interpolationmode sample-hold
attr title "queue length, timeavg"
scalar NetK.rte[0].queue[4] qlen:max 1
attr interpolationmode sample-hold
attr title "queue length, max"
scalar NetK.rte[0].queue[4] drop:count 0
attr interpolationmode none
attr title "dropped packet byte length, count"
attr unit bytes
scalar NetK.rte[0].queue[4] drop:sum 0
attr interpolationmode none
attr title "dropped packet byte length, sum"
attr unit bytes
statistic NetK.rte[0].queue[5] "drop count"
field count 0
field mean nan
field stddev nan
field min nan
field max nan
field sum 0
field sqrsum 0
bin	-inf	0
bin	0	0
bin	1	0
scalar NetK.rte[0].queue[5] rxBytes:count 212
attr interpolationmode none
attr title "received packet byte length, count"
attr unit bytes
scalar NetK.rte[0].queue[5] rxBytes:sum 318000
attr interpolationmode none
attr title "received packet byte length, sum"
attr unit bytes
statistic NetK.rte[0].queue[5] rxBytes:histogram
field count 212
field mean 1500
field stddev 0
field min 1500
field max 1500
field sum 318000
field sqrsum 477000000
attr interpolationmode none
attr title "received packet byte length, histogram"
attr unit bytes
bin	-inf	0
bin	1499	0
bin	1500	212
bin	1501	0
scalar NetK.rte[0].queue[5] txBytes:count 187
attr interpolationmode none
attr title "transmitting packet byte length, count"
attr unit bytes
scalar NetK.rte[0].queue[5] txBytes:sum 280500
attr interpolationmode none
attr title "transmitting packet byte length, sum"
attr unit bytes
statistic NetK.rte[0].queue[5] txBytes:histogram
field count 187
field mean 1500
field stddev 0
field min 1500
field max 1500
field sum 280500
field sqrsum 420750000
attr interpolationmode none
attr title "transmitting packet byte length, histogram"
attr unit bytes
bin	-inf	0
bin	1499	0
bin	1500	187
bin	1501	0
scalar NetK.rte[0].queue[5] busy:timeavg 0.00074781304673832
attr interpolationmode sample-hold
attr title "server busy state, timeavg"
scalar NetK.rte[0].queue[5] qlen:timeavg 0
attr interpolationmode sample-hold
attr title "queue length, timeavg"
scalar NetK.rte[0].queue[5] qlen:max 0
attr interpolationmode sample-hold
attr title "queue length, max"
scalar NetK.rte[0].queue[5] drop:count 0
attr interpolationmode none
attr title "dropped packet byte length, count"
attr unit bytes
scalar NetK.rte[0].queue[5] drop:sum 0
attr interpolationmode none
attr title "dropped packet byte length, sum"
attr unit bytes
scalar NetK.rte[1].app #sent 0
scalar NetK.rte[1].app #received 1.7095490711442e-306
statistic NetK.rte[1].app "hop count"
field count 0
field mean nan
field stddev nan
field min nan
field max nan
field sum 0
field sqrsum 0
bin	-inf	0
bin	0	0
bin	1	0
scalar NetK.rte[1].app hopCount:mean nan
attr interpolationmode none
attr title "hop count of arrived packets, mean"
scalar NetK.rte[1].app hopCount:max nan
attr interpolationmode none
attr title "hop count of arrived packets, max"
scalar NetK.rte[1].app hopCount:count 0
attr interpolationmode none
attr title "hop count of arrived packets, count"
statistic NetK.rte[1].app hopCount:histogram
field count 0
field mean nan
field stddev nan
field min nan
field max nan
field sum 0
field sqrsum 0
attr interpolationmode none
attr title "hop count of arrived packets, histogram"
bin	-inf	0
bin	0	0
bin	1	0
scalar NetK.rte[1].app endToEndDelay:mean nan
attr interpolationmode none
attr title "end-to-end delay of arrived packets, mean"
attr unit s
scalar NetK.rte[1].app endToEndDelay:max nan
attr interpolationmode none
attr title "end-to-end delay of arrived packets, max"
attr unit s
scalar NetK.rte[1].app endToEndDelay:count 0
attr interpolationmode none
attr title "end-to-end delay of arrived packets, count"
attr unit s
scalar NetK.rte[1].routing "Terminal Messages dropped due to wrong prediction" 0
statistic NetK.rte[1].routing TopoLinkCounter:histogram
field count 0
field mean nan
field stddev nan
field min nan
field max nan
field sum 0
field sqrsum 0
attr interpolationmode none
attr title "Number of links enabled in Topology, histogram"
bin	-inf	0
bin	0	0
bin	1	0
scalar NetK.rte[1].routing TopoLinkCounter:mean nan
attr interpolationmode none
attr title "Number of links enabled in Topology, mean"
scalar NetK.rte[1].routing TopoLinkCounter:max nan
attr interpolationmode none
attr title "Number of links enabled in Topology, max"
scalar NetK.rte[1].routing TopoLinkCounter:count 0
attr interpolationmode none
attr title "Number of links enabled in Topology, count"
statistic NetK.rte[1].routing outputIf:histogram
field count 0
field mean nan
field stddev nan
field min nan
field max nan
field sum 0
field sqrsum 0
attr interpolationmode none
attr title "output interface for each routed packet, histogram"
bin	-inf	0
bin	0	0
bin	1	0
scalar NetK.rte[1].routing drop:count 0
attr interpolationmode none
attr title "dropped packet byte length, count"
attr unit bytes
scalar NetK.rte[1].routing drop:sum 0
attr interpolationmode none
attr title "dropped packet byte length, sum"
attr unit bytes
statistic NetK.rte[1].routing hopCount:histogram
field count 0
field mean nan
field stddev nan
field min nan
field max nan
field sum 0
field sqrsum 0
attr interpolationmode none
attr title "count number of hops for packet, histogram"
bin	-inf	0
bin	0	0
bin	1	0
scalar NetK.rte[1].routing hopCount:mean nan
attr interpolationmode none
attr title "count number of hops for packet, mean"
scalar NetK.rte[1].routing hopCount:max nan
attr interpolationmode none
attr title "count number of hops for packet, max"
scalar NetK.rte[1].routing hopCount:count 0
attr interpolationmode none
attr title "count number of hops for packet, count"
statistic NetK.rte[1].queue[0] "drop count"
field count 71
field mean 36
field stddev 20.63976744055
field min 1
field max 71
field sum 2556
field sqrsum 121836
bin	-inf	0
bin	0	0
bin	1	1
bin	2	1
bin	3	1
bin	4	1
bin	5	1
bin	6	1
bin	7	1
bin	8	1
bin	9	1
bin	10	1
bin	11	1
bin	12	1
bin	13	1
bin	14	1
bin	15	1
bin	16	1
bin	17	1
bin	18	1
bin	19	1
bin	20	1
bin	21	1
bin	22	1
bin	23	1
bin	24	1
bin	25	1
bin	26	1
bin	27	1
bin	28	1
bin	29	1
bin	30	1
bin	31	1
bin	32	1
bin	33	1
bin	34	1
bin	35	1
bin	36	1
bin	37	1
bin	38	1
bin	39	1
bin	40	1
bin	41	1
bin	42	1
bin	43	1
bin	44	1
bin	45	1
bin	46	1
bin	47	1
bin	48	1
bin	49	1
bin	50	1
bin	51	1
bin	52	1
bin	53	1
bin	54	1
bin	55	1
bin	56	1
bin	57	1
bin	58	1
bin	59	1
bin	60	1
bin	61	1
bin	62	1
bin	63	1
bin	64	1
bin	65	1
bin	66	1
bin	67	1
bin	68	1
bin	69	1
bin	70	1
bin	71	1
bin	72	0
bin	73	0
bin	74	0
bin	75	0
bin	76	0
bin	77	0
bin	78	0
bin	79	0
bin	80	0
bin	81	0
bin	82	0
bin	83	0
bin	84	0
bin	85	0
bin	86	0
bin	87	0
bin	88	0
bin	89	0
scalar NetK.rte[1].queue[0] rxBytes:count 17069
attr interpolationmode none
attr title "received packet byte length, count"
attr unit bytes
scalar NetK.rte[1].queue[0] rxBytes:sum 25603500
attr interpolationmode none
attr title "received packet byte length, sum"
attr unit bytes
statistic NetK.rte[1].queue[0] rxBytes:histogram
field count 17069
field mean 1500
field stddev 0
field min 1500
field max 1500
field sum 25603500
field sqrsum 38405250000
attr interpolationmode none
attr title "received packet byte length, histogram"
attr unit bytes
bin	-inf	0
bin	1499	0
bin	1500	17069
bin	1501	0
scalar NetK.rte[1].queue[0] txBytes:count 16618
attr interpolationmode none
attr title "transmitting packet byte length, count"
attr unit bytes
scalar NetK.rte[1].queue[0] txBytes:sum 24927000
attr interpolationmode none
attr title "transmitting packet byte length, sum"
attr unit bytes
statistic NetK.rte[1].queue[0] txBytes:histogram
field count 16618
field mean 1500
field stddev 0
field min 1500
field max 1500
field sum 24927000
field sqrsum 37390500000
attr interpolationmode none
attr title "transmitting packet byte length, histogram"
attr unit bytes
bin	-inf	0
bin	1499	0
bin	1500	16618
bin	1501	0
scalar NetK.rte[1].queue[0] busy:timeavg 0.066455386153467
attr interpolationmode sample-hold
attr title "server busy state, timeavg"
scalar NetK.rte[1].queue[0] qlen:timeavg 0.043047164753818
attr interpolationmode sample-hold
attr title "queue length, timeavg"
scalar NetK.rte[1].queue[0] qlen:max 5
attr interpolationmode sample-hold
attr title "queue length, max"
scalar NetK.rte[1].queue[0] drop:count 71
attr interpolationmode none
attr title "dropped packet byte length, count"
attr unit bytes
scalar NetK.rte[1].queue[0] drop:sum 106500
attr interpolationmode none
attr title "dropped packet byte length, sum"
attr unit bytes
statistic NetK.rte[1].queue[1] "drop count"
field count 0
field mean nan
field stddev nan
field min nan
field max nan
field sum 0
field sqrsum 0
bin	-inf	0
bin	0	0
bin	1	0
scalar NetK.rte[1].queue[1] rxBytes:count 1614
attr interpolationmode none
attr title "received packet byte length, count"
attr unit bytes
scalar NetK.rte[1].queue[1] rxBytes:sum 2421000
attr interpolationmode none
attr title "received packet byte length, sum"
attr unit bytes
statistic NetK.rte[1].queue[1] rxBytes:histogram
field count 1614
field mean 1500
field stddev 0
field min 1500
field max 1500
field sum 2421000
field sqrsum 3631500000
attr interpolationmode none
attr title "received packet byte length, histogram"
attr unit bytes
bin	-inf	0
bin	1499	0
bin	1500	1614
bin	1501	0
scalar NetK.rte[1].queue[1] txBytes:count 1646
attr interpolationmode none
attr title "transmitting packet byte length, count"
attr unit bytes
scalar NetK.rte[1].queue[1] txBytes:sum 2469000
attr interpolationmode none
attr title "transmitting packet byte length, sum"
attr unit bytes
statistic NetK.rte[1].queue[1] txBytes:histogram
field count 1646
field mean 1500
field stddev 0
field min 1500
field max 1500
field sum 2469000
field sqrsum 3703500000
attr interpolationmode none
attr title "transmitting packet byte length, histogram"
attr unit bytes
bin	-inf	0
bin	1499	0
bin	1500	1646
bin	1501	0
scalar NetK.rte[1].queue[1] busy:timeavg 0.0065823544113973
attr interpolationmode sample-hold
attr title "server busy state, timeavg"
scalar NetK.rte[1].queue[1] qlen:timeavg 0
attr interpolationmode sample-hold
attr title "queue length, timeavg"
scalar NetK.rte[1].queue[1] qlen:max 0
attr interpolationmode sample-hold
attr title "queue length, max"
scalar NetK.rte[1].queue[1] drop:count 0
attr interpolationmode none
attr title "dropped packet byte length, count"
attr unit bytes
scalar NetK.rte[1].queue[1] drop:sum 0
attr interpolationmode none
attr title "dropped packet byte length, sum"
attr unit bytes
statistic NetK.rte[1].queue[2] "drop count"
field count 0
field mean nan
field stddev nan
field min nan
field max nan
field sum 0
field sqrsum 0
bin	-inf	0
bin	0	0
bin	1	0
scalar NetK.rte[1].queue[2] rxBytes:count 721
attr interpolationmode none
attr title "received packet byte length, count"
attr unit bytes
scalar NetK.rte[1].queue[2] rxBytes:sum 1081500
attr interpolationmode none
attr title "received packet byte length, sum"
attr unit bytes
statistic NetK.rte[1].queue[2] rxBytes:histogram
field count 721
field mean 1500
field stddev 0
field min 1500
field max 1500
field sum 1081500
field sqrsum 1622250000
attr interpolationmode none
attr title "received packet byte length, histogram"
attr unit bytes
bin	-inf	0
bin	1499	0
bin	1500	721
bin	1501	0
scalar NetK.rte[1].queue[2] txBytes:count 691
attr interpolationmode none
attr title "transmitting packet byte length, count"
attr unit bytes
scalar NetK.rte[1].queue[2] txBytes:sum 1036500
attr interpolationmode none
attr title "transmitting packet byte length, sum"
attr unit bytes
statistic NetK.rte[1].queue[2] txBytes:histogram
field count 691
field mean 1500
field stddev 0
field min 1500
field max 1500
field sum 1036500
field sqrsum 1554750000
attr interpolationmode none
attr title "transmitting packet byte length, histogram"
attr unit bytes
bin	-inf	0
bin	1499	0
bin	1500	691
bin	1501	0
scalar NetK.rte[1].queue[2] busy:timeavg 0.0027633091727068
attr interpolationmode sample-hold
attr title "server busy state, timeavg"
scalar NetK.rte[1].queue[2] qlen:timeavg 0
attr interpolationmode sample-hold
attr title "queue length, timeavg"
scalar NetK.rte[1].queue[2] qlen:max 0
attr interpolationmode sample-hold
attr title "queue length, max"
scalar NetK.rte[1].queue[2] drop:count 0
attr interpolationmode none
attr title "dropped packet byte length, count"
attr unit bytes
scalar NetK.rte[1].queue[2] drop:sum 0
attr interpolationmode none
attr title "dropped packet byte length, sum"
attr unit bytes
statistic NetK.rte[1].queue[3] "drop count"
field count 0
field mean nan
field stddev nan
field min nan
field max nan
field sum 0
field sqrsum 0
bin	-inf	0
bin	0	0
bin	1	0
scalar NetK.rte[1].queue[3] rxBytes:count 798
attr interpolationmode none
attr title "received packet byte length, count"
attr unit bytes
scalar NetK.rte[1].queue[3] rxBytes:sum 1197000
attr interpolationmode none
attr title "received packet byte length, sum"
attr unit bytes
statistic NetK.rte[1].queue[3] rxBytes:histogram
field count 798
field mean 1500
field stddev 0
field min 1500
field max 1500
field sum 1197000
field sqrsum 1795500000
attr interpolationmode none
attr title "received packet byte length, histogram"
attr unit bytes
bin	-inf	0
bin	1499	0
bin	1500	798
bin	1501	0
scalar NetK.rte[1].queue[3] txBytes:count 855
attr interpolationmode none
attr title "transmitting packet byte length, count"
attr unit bytes
scalar NetK.rte[1].queue[3] txBytes:sum 1282500
attr interpolationmode none
attr title "transmitting packet byte length, sum"
attr unit bytes
statistic NetK.rte[1].queue[3] txBytes:histogram
field count 855
field mean 1500
field stddev 0
field min 1500
field max 1500
field sum 1282500
field sqrsum 1923750000
attr interpolationmode none
attr title "transmitting packet byte length, histogram"
attr unit bytes
bin	-inf	0
bin	1499	0
bin	1500	855
bin	1501	0
scalar NetK.rte[1].queue[3] busy:timeavg 0.0034191452136965
attr interpolationmode sample-hold
attr title "server busy state, timeavg"
scalar NetK.rte[1].queue[3] qlen:timeavg 1.5404982087811e-005
attr interpolationmode sample-hold
attr title "queue length, timeavg"
scalar NetK.rte[1].queue[3] qlen:max 1
attr interpolationmode sample-hold
attr title "queue length, max"
scalar NetK.rte[1].queue[3] drop:count 0
attr interpolationmode none
attr title "dropped packet byte length, count"
attr unit bytes
scalar NetK.rte[1].queue[3] drop:sum 0
attr interpolationmode none
attr title "dropped packet byte length, sum"
attr unit bytes
statistic NetK.rte[1].queue[4] "drop count"
field count 0
field mean nan
field stddev nan
field min nan
field max nan
field sum 0
field sqrsum 0
bin	-inf	0
bin	0	0
bin	1	0
scalar NetK.rte[1].queue[4] rxBytes:count 1073
attr interpolationmode none
attr title "received packet byte length, count"
attr unit bytes
scalar NetK.rte[1].queue[4] rxBytes:sum 1609500
attr interpolationmode none
attr title "received packet byte length, sum"
attr unit bytes
statistic NetK.rte[1].queue[4] rxBytes:histogram
field count 1073
field mean 1500
field stddev 0
field min 1500
field max 1500
field sum 1609500
field sqrsum 2414250000
attr interpolationmode none
attr title "received packet byte length, histogram"
attr unit bytes
bin	-inf	0
bin	1499	0
bin	1500	1073
bin	1501	0
scalar NetK.rte[1].queue[4] txBytes:count 979
attr interpolationmode none
attr title "transmitting packet byte length, count"
attr unit bytes
scalar NetK.rte[1].queue[4] txBytes:sum 1468500
attr interpolationmode none
attr title "transmitting packet byte length, sum"
attr unit bytes
statistic NetK.rte[1].queue[4] txBytes:histogram
field count 979
field mean 1500
field stddev 0
field min 1500
field max 1500
field sum 1468500
field sqrsum 2202750000
attr interpolationmode none
attr title "transmitting packet byte length, histogram"
attr unit bytes
bin	-inf	0
bin	1499	0
bin	1500	979
bin	1501	0
scalar NetK.rte[1].queue[4] busy:timeavg 0.0039150212446888
attr interpolationmode sample-hold
attr title "server busy state, timeavg"
scalar NetK.rte[1].queue[4] qlen:timeavg 1.4179011913688e-005
attr interpolationmode sample-hold
attr title "queue length, timeavg"
scalar NetK.rte[1].queue[4] qlen:max 1
attr interpolationmode sample-hold
attr title "queue length, max"
scalar NetK.rte[1].queue[4] drop:count 0
attr interpolationmode none
attr title "dropped packet byte length, count"
attr unit bytes
scalar NetK.rte[1].queue[4] drop:sum 0
attr interpolationmode none
attr title "dropped packet byte length, sum"
attr unit bytes
statistic NetK.rte[1].queue[5] "drop count"
field count 0
field mean nan
field stddev nan
field min nan
field max nan
field sum 0
field sqrsum 0
bin	-inf	0
bin	0	0
bin	1	0
scalar NetK.rte[1].queue[5] rxBytes:count 4018
attr interpolationmode none
attr title "received packet byte length, count"
attr unit bytes
scalar NetK.rte[1].queue[5] rxBytes:sum 6027000
attr interpolationmode none
attr title "received packet byte length, sum"
attr unit bytes
statistic NetK.rte[1].queue[5] rxBytes:histogram
field count 4018
field mean 1500
field stddev 0
field min 1500
field max 1500
field sum 6027000
field sqrsum 9040500000
attr interpolationmode none
attr title "received packet byte length, histogram"
attr unit bytes
bin	-inf	0
bin	1499	0
bin	1500	4018
bin	1501	0
scalar NetK.rte[1].queue[5] txBytes:count 4214
attr interpolationmode none
attr title "transmitting packet byte length, count"
attr unit bytes
scalar NetK.rte[1].queue[5] txBytes:sum 6321000
attr interpolationmode none
attr title "transmitting packet byte length, sum"
attr unit bytes
statistic NetK.rte[1].queue[5] txBytes:histogram
field count 4214
field mean 1500
field stddev 0
field min 1500
field max 1500
field sum 6321000
field sqrsum 9481500000
attr interpolationmode none
attr title "transmitting packet byte length, histogram"
attr unit bytes
bin	-inf	0
bin	1499	0
bin	1500	4214
bin	1501	0
scalar NetK.rte[1].queue[5] busy:timeavg 0.016851787053237
attr interpolationmode sample-hold
attr title "server busy state, timeavg"
scalar NetK.rte[1].queue[5] qlen:timeavg 0.012007748049654
attr interpolationmode sample-hold
attr title "queue length, timeavg"
scalar NetK.rte[1].queue[5] qlen:max 5
attr interpolationmode sample-hold
attr title "queue length, max"
scalar NetK.rte[1].queue[5] drop:count 0
attr interpolationmode none
attr title "dropped packet byte length, count"
attr unit bytes
scalar NetK.rte[1].queue[5] drop:sum 0
attr interpolationmode none
attr title "dropped packet byte length, sum"
attr unit bytes
scalar NetK.rte[2].app #sent -1.0050347844233e+308
scalar NetK.rte[2].app #received -1.0050339276102e+308
statistic NetK.rte[2].app "hop count"
field count 0
field mean nan
field stddev nan
field min nan
field max nan
field sum 0
field sqrsum 0
bin	-inf	0
bin	0	0
bin	1	0
scalar NetK.rte[2].app hopCount:mean nan
attr interpolationmode none
attr title "hop count of arrived packets, mean"
scalar NetK.rte[2].app hopCount:max nan
attr interpolationmode none
attr title "hop count of arrived packets, max"
scalar NetK.rte[2].app hopCount:count 0
attr interpolationmode none
attr title "hop count of arrived packets, count"
statistic NetK.rte[2].app hopCount:histogram
field count 0
field mean nan
field stddev nan
field min nan
field max nan
field sum 0
field sqrsum 0
attr interpolationmode none
attr title "hop count of arrived packets, histogram"
bin	-inf	0
bin	0	0
bin	1	0
scalar NetK.rte[2].app endToEndDelay:mean nan
attr interpolationmode none
attr title "end-to-end delay of arrived packets, mean"
attr unit s
scalar NetK.rte[2].app endToEndDelay:max nan
attr interpolationmode none
attr title "end-to-end delay of arrived packets, max"
attr unit s
scalar NetK.rte[2].app endToEndDelay:count 0
attr interpolationmode none
attr title "end-to-end delay of arrived packets, count"
attr unit s
scalar NetK.rte[2].routing "Terminal Messages dropped due to wrong prediction" 0
statistic NetK.rte[2].routing TopoLinkCounter:histogram
field count 0
field mean nan
field stddev nan
field min nan
field max nan
field sum 0
field sqrsum 0
attr interpolationmode none
attr title "Number of links enabled in Topology, histogram"
bin	-inf	0
bin	0	0
bin	1	0
scalar NetK.rte[2].routing TopoLinkCounter:mean nan
attr interpolationmode none
attr title "Number of links enabled in Topology, mean"
scalar NetK.rte[2].routing TopoLinkCounter:max nan
attr interpolationmode none
attr title "Number of links enabled in Topology, max"
scalar NetK.rte[2].routing TopoLinkCounter:count 0
attr interpolationmode none
attr title "Number of links enabled in Topology, count"
statistic NetK.rte[2].routing outputIf:histogram
field count 0
field mean nan
field stddev nan
field min nan
field max nan
field sum 0
field sqrsum 0
attr interpolationmode none
attr title "output interface for each routed packet, histogram"
bin	-inf	0
bin	0	0
bin	1	0
scalar NetK.rte[2].routing drop:count 0
attr interpolationmode none
attr title "dropped packet byte length, count"
attr unit bytes
scalar NetK.rte[2].routing drop:sum 0
attr interpolationmode none
attr title "dropped packet byte length, sum"
attr unit bytes
statistic NetK.rte[2].routing hopCount:histogram
field count 0
field mean nan
field stddev nan
field min nan
field max nan
field sum 0
field sqrsum 0
attr interpolationmode none
attr title "count number of hops for packet, histogram"
bin	-inf	0
bin	0	0
bin	1	0
scalar NetK.rte[2].routing hopCount:mean nan
attr interpolationmode none
attr title "count number of hops for packet, mean"
scalar NetK.rte[2].routing hopCount:max nan
attr interpolationmode none
attr title "count number of hops for packet, max"
scalar NetK.rte[2].routing hopCount:count 0
attr interpolationmode none
attr title "count number of hops for packet, count"
statistic NetK.rte[2].queue[0] "drop count"
field count 0
field mean nan
field stddev nan
field min nan
field max nan
field sum 0
field sqrsum 0
bin	-inf	0
bin	0	0
bin	1	0
scalar NetK.rte[2].queue[0] rxBytes:count 1646
attr interpolationmode none
attr title "received packet byte length, count"
attr unit bytes
scalar NetK.rte[2].queue[0] rxBytes:sum 2469000
attr interpolationmode none
attr title "received packet byte length, sum"
attr unit bytes
statistic NetK.rte[2].queue[0] rxBytes:histogram
field count 1646
field mean 1500
field stddev 0
field min 1500
field max 1500
field sum 2469000
field sqrsum 3703500000
attr interpolationmode none
attr title "received packet byte length, histogram"
attr unit bytes
bin	-inf	0
bin	1499	0
bin	1500	1646
bin	1501	0
scalar NetK.rte[2].queue[0] txBytes:count 1614
attr interpolationmode none
attr title "transmitting packet byte length, count"
attr unit bytes
scalar NetK.rte[2].queue[0] txBytes:sum 2421000
attr interpolationmode none
attr title "transmitting packet byte length, sum"
attr unit bytes
statistic NetK.rte[2].queue[0] txBytes:histogram
field count 1614
field mean 1500
field stddev 0
field min 1500
field max 1500
field sum 2421000
field sqrsum 3631500000
attr interpolationmode none
attr title "transmitting packet byte length, histogram"
attr unit bytes
bin	-inf	0
bin	1499	0
bin	1500	1614
bin	1501	0
scalar NetK.rte[2].queue[0] busy:timeavg 0.0064543864033993
attr interpolationmode sample-hold
attr title "server busy state, timeavg"
scalar NetK.rte[2].queue[0] qlen:timeavg 0.00014250033991502
attr interpolationmode sample-hold
attr title "queue length, timeavg"
scalar NetK.rte[2].queue[0] qlen:max 1
attr interpolationmode sample-hold
attr title "queue length, max"
scalar NetK.rte[2].queue[0] drop:count 0
attr interpolationmode none
attr title "dropped packet byte length, count"
attr unit bytes
scalar NetK.rte[2].queue[0] drop:sum 0
attr interpolationmode none
attr title "dropped packet byte length, sum"
attr unit bytes
statistic NetK.rte[2].queue[1] "drop count"
field count 0
field mean nan
field stddev nan
field min nan
field max nan
field sum 0
field sqrsum 0
bin	-inf	0
bin	0	0
bin	1	0
scalar NetK.rte[2].queue[1] rxBytes:count 901
attr interpolationmode none
attr title "received packet byte length, count"
attr unit bytes
scalar NetK.rte[2].queue[1] rxBytes:sum 1351500
attr interpolationmode none
attr title "received packet byte length, sum"
attr unit bytes
statistic NetK.rte[2].queue[1] rxBytes:histogram
field count 901
field mean 1500
field stddev 0
field min 1500
field max 1500
field sum 1351500
field sqrsum 2027250000
attr interpolationmode none
attr title "received packet byte length, histogram"
attr unit bytes
bin	-inf	0
bin	1499	0
bin	1500	901
bin	1501	0
scalar NetK.rte[2].queue[1] txBytes:count 902
attr interpolationmode none
attr title "transmitting packet byte length, count"
attr unit bytes
scalar NetK.rte[2].queue[1] txBytes:sum 1353000
attr interpolationmode none
attr title "transmitting packet byte length, sum"
attr unit bytes
statistic NetK.rte[2].queue[1] txBytes:histogram
field count 902
field mean 1500
field stddev 0
field min 1500
field max 1500
field sum 1353000
field sqrsum 2029500000
attr interpolationmode none
attr title "transmitting packet byte length, histogram"
attr unit bytes
bin	-inf	0
bin	1499	0
bin	1500	902
bin	1501	0
scalar NetK.rte[2].queue[1] busy:timeavg 0.0036070982254436
attr interpolationmode sample-hold
attr title "server busy state, timeavg"
scalar NetK.rte[2].queue[1] qlen:timeavg 9.1906523369158e-007
attr interpolationmode sample-hold
attr title "queue length, timeavg"
scalar NetK.rte[2].queue[1] qlen:max 1
attr interpolationmode sample-hold
attr title "queue length, max"
scalar NetK.rte[2].queue[1] drop:count 0
attr interpolationmode none
attr title "dropped packet byte length, count"
attr unit bytes
scalar NetK.rte[2].queue[1] drop:sum 0
attr interpolationmode none
attr title "dropped packet byte length, sum"
attr unit bytes
statistic NetK.rte[2].queue[2] "drop count"
field count 0
field mean nan
field stddev nan
field min nan
field max nan
field sum 0
field sqrsum 0
bin	-inf	0
bin	0	0
bin	1	0
scalar NetK.rte[2].queue[2] rxBytes:count 1295
attr interpolationmode none
attr title "received packet byte length, count"
attr unit bytes
scalar NetK.rte[2].queue[2] rxBytes:sum 1942500
attr interpolationmode none
attr title "received packet byte length, sum"
attr unit bytes
statistic NetK.rte[2].queue[2] rxBytes:histogram
field count 1295
field mean 1500
field stddev 0
field min 1500
field max 1500
field sum 1942500
field sqrsum 2913750000
attr interpolationmode none
attr title "received packet byte length, histogram"
attr unit bytes
bin	-inf	0
bin	1499	0
bin	1500	1295
bin	1501	0
scalar NetK.rte[2].queue[2] txBytes:count 1326
attr interpolationmode none
attr title "transmitting packet byte length, count"
attr unit bytes
scalar NetK.rte[2].queue[2] txBytes:sum 1989000
attr interpolationmode none
attr title "transmitting packet byte length, sum"
attr unit bytes
statistic NetK.rte[2].queue[2] txBytes:histogram
field count 1326
field mean 1500
field stddev 0
field min 1500
field max 1500
field sum 1989000
field sqrsum 2983500000
attr interpolationmode none
attr title "transmitting packet byte length, histogram"
attr unit bytes
bin	-inf	0
bin	1499	0
bin	1500	1326
bin	1501	0
scalar NetK.rte[2].queue[2] busy:timeavg 0.0053026743314172
attr interpolationmode sample-hold
attr title "server busy state, timeavg"
scalar NetK.rte[2].queue[2] qlen:timeavg 0.00031192201949513
attr interpolationmode sample-hold
attr title "queue length, timeavg"
scalar NetK.rte[2].queue[2] qlen:max 1
attr interpolationmode sample-hold
attr title "queue length, max"
scalar NetK.rte[2].queue[2] drop:count 0
attr interpolationmode none
attr title "dropped packet byte length, count"
attr unit bytes
scalar NetK.rte[2].queue[2] drop:sum 0
attr interpolationmode none
attr title "dropped packet byte length, sum"
attr unit bytes
statistic NetK.rte[2].queue[3] "drop count"
field count 0
field mean nan
field stddev nan
field min nan
field max nan
field sum 0
field sqrsum 0
bin	-inf	0
bin	0	0
bin	1	0
scalar NetK.rte[2].queue[3] rxBytes:count 316
attr interpolationmode none
attr title "received packet byte length, count"
attr unit bytes
scalar NetK.rte[2].queue[3] rxBytes:sum 474000
attr interpolationmode none
attr title "received packet byte length, sum"
attr unit bytes
statistic NetK.rte[2].queue[3] rxBytes:histogram
field count 316
field mean 1500
field stddev 0
field min 1500
field max 1500
field sum 474000
field sqrsum 711000000
attr interpolationmode none
attr title "received packet byte length, histogram"
attr unit bytes
bin	-inf	0
bin	1499	0
bin	1500	316
bin	1501	0
scalar NetK.rte[2].queue[3] txBytes:count 298
attr interpolationmode none
attr title "transmitting packet byte length, count"
attr unit bytes
scalar NetK.rte[2].queue[3] txBytes:sum 447000
attr interpolationmode none
attr title "transmitting packet byte length, sum"
attr unit bytes
statistic NetK.rte[2].queue[3] txBytes:histogram
field count 298
field mean 1500
field stddev 0
field min 1500
field max 1500
field sum 447000
field sqrsum 670500000
attr interpolationmode none
attr title "transmitting packet byte length, histogram"
attr unit bytes
bin	-inf	0
bin	1499	0
bin	1500	298
bin	1501	0
scalar NetK.rte[2].queue[3] busy:timeavg 0.0011917020744814
attr interpolationmode sample-hold
attr title "server busy state, timeavg"
scalar NetK.rte[2].queue[3] qlen:timeavg 0
attr interpolationmode sample-hold
attr title "queue length, timeavg"
scalar NetK.rte[2].queue[3] qlen:max 0
attr interpolationmode sample-hold
attr title "queue length, max"
scalar NetK.rte[2].queue[3] drop:count 0
attr interpolationmode none
attr title "dropped packet byte length, count"
attr unit bytes
scalar NetK.rte[2].queue[3] drop:sum 0
attr interpolationmode none
attr title "dropped packet byte length, sum"
attr unit bytes
statistic NetK.rte[2].queue[4] "drop count"
field count 0
field mean nan
field stddev nan
field min nan
field max nan
field sum 0
field sqrsum 0
bin	-inf	0
bin	0	0
bin	1	0
scalar NetK.rte[2].queue[4] rxBytes:count 523
attr interpolationmode none
attr title "received packet byte length, count"
attr unit bytes
scalar NetK.rte[2].queue[4] rxBytes:sum 784500
attr interpolationmode none
attr title "received packet byte length, sum"
attr unit bytes
statistic NetK.rte[2].queue[4] rxBytes:histogram
field count 523
field mean 1500
field stddev 0
field min 1500
field max 1500
field sum 784500
field sqrsum 1176750000
attr interpolationmode none
attr title "received packet byte length, histogram"
attr unit bytes
bin	-inf	0
bin	1499	0
bin	1500	523
bin	1501	0
scalar NetK.rte[2].queue[4] txBytes:count 501
attr interpolationmode none
attr title "transmitting packet byte length, count"
attr unit bytes
scalar NetK.rte[2].queue[4] txBytes:sum 751500
attr interpolationmode none
attr title "transmitting packet byte length, sum"
attr unit bytes
statistic NetK.rte[2].queue[4] txBytes:histogram
field count 501
field mean 1500
field stddev 0
field min 1500
field max 1500
field sum 751500
field sqrsum 1127250000
attr interpolationmode none
attr title "transmitting packet byte length, histogram"
attr unit bytes
bin	-inf	0
bin	1499	0
bin	1500	501
bin	1501	0
scalar NetK.rte[2].queue[4] busy:timeavg 0.0020034991252187
attr interpolationmode sample-hold
attr title "server busy state, timeavg"
scalar NetK.rte[2].queue[4] qlen:timeavg 0
attr interpolationmode sample-hold
attr title "queue length, timeavg"
scalar NetK.rte[2].queue[4] qlen:max 0
attr interpolationmode sample-hold
attr title "queue length, max"
scalar NetK.rte[2].queue[4] drop:count 0
attr interpolationmode none
attr title "dropped packet byte length, count"
attr unit bytes
scalar NetK.rte[2].queue[4] drop:sum 0
attr interpolationmode none
attr title "dropped packet byte length, sum"
attr unit bytes
statistic NetK.rte[2].queue[5] "drop count"
field count 0
field mean nan
field stddev nan
field min nan
field max nan
field sum 0
field sqrsum 0
bin	-inf	0
bin	0	0
bin	1	0
scalar NetK.rte[2].queue[5] rxBytes:count 414
attr interpolationmode none
attr title "received packet byte length, count"
attr unit bytes
scalar NetK.rte[2].queue[5] rxBytes:sum 621000
attr interpolationmode none
attr title "received packet byte length, sum"
attr unit bytes
statistic NetK.rte[2].queue[5] rxBytes:histogram
field count 414
field mean 1500
field stddev 0
field min 1500
field max 1500
field sum 621000
field sqrsum 931500000
attr interpolationmode none
attr title "received packet byte length, histogram"
attr unit bytes
bin	-inf	0
bin	1499	0
bin	1500	414
bin	1501	0
scalar NetK.rte[2].queue[5] txBytes:count 446
attr interpolationmode none
attr title "transmitting packet byte length, count"
attr unit bytes
scalar NetK.rte[2].queue[5] txBytes:sum 669000
attr interpolationmode none
attr title "transmitting packet byte length, sum"
attr unit bytes
statistic NetK.rte[2].queue[5] txBytes:histogram
field count 446
field mean 1500
field stddev 0
field min 1500
field max 1500
field sum 669000
field sqrsum 1003500000
attr interpolationmode none
attr title "transmitting packet byte length, histogram"
attr unit bytes
bin	-inf	0
bin	1499	0
bin	1500	446
bin	1501	0
scalar NetK.rte[2].queue[5] busy:timeavg 0.0017835541114721
attr interpolationmode sample-hold
attr title "server busy state, timeavg"
scalar NetK.rte[2].queue[5] qlen:timeavg 3.9990002499375e-006
attr interpolationmode sample-hold
attr title "queue length, timeavg"
scalar NetK.rte[2].queue[5] qlen:max 1
attr interpolationmode sample-hold
attr title "queue length, max"
scalar NetK.rte[2].queue[5] drop:count 0
attr interpolationmode none
attr title "dropped packet byte length, count"
attr unit bytes
scalar NetK.rte[2].queue[5] drop:sum 0
attr interpolationmode none
attr title "dropped packet byte length, sum"
attr unit bytes
scalar NetK.rte[3].app #sent 0
scalar NetK.rte[3].app #received 0
statistic NetK.rte[3].app "hop count"
field count 0
field mean nan
field stddev nan
field min nan
field max nan
field sum 0
field sqrsum 0
bin	-inf	0
bin	0	0
bin	1	0
scalar NetK.rte[3].app hopCount:mean nan
attr interpolationmode none
attr title "hop count of arrived packets, mean"
scalar NetK.rte[3].app hopCount:max nan
attr interpolationmode none
attr title "hop count of arrived packets, max"
scalar NetK.rte[3].app hopCount:count 0
attr interpolationmode none
attr title "hop count of arrived packets, count"
statistic NetK.rte[3].app hopCount:histogram
field count 0
field mean nan
field stddev nan
field min nan
field max nan
field sum 0
field sqrsum 0
attr interpolationmode none
attr title "hop count of arrived packets, histogram"
bin	-inf	0
bin	0	0
bin	1	0
scalar NetK.rte[3].app endToEndDelay:mean nan
attr interpolationmode none
attr title "end-to-end delay of arrived packets, mean"
attr unit s
scalar NetK.rte[3].app endToEndDelay:max nan
attr interpolationmode none
attr title "end-to-end delay of arrived packets, max"
attr unit s
scalar NetK.rte[3].app endToEndDelay:count 0
attr interpolationmode none
attr title "end-to-end delay of arrived packets, count"
attr unit s
scalar NetK.rte[3].routing "Terminal Messages dropped due to wrong prediction" 1
statistic NetK.rte[3].routing TopoLinkCounter:histogram
field count 0
field mean nan
field stddev nan
field min nan
field max nan
field sum 0
field sqrsum 0
attr interpolationmode none
attr title "Number of links enabled in Topology, histogram"
bin	-inf	0
bin	0	0
bin	1	0
scalar NetK.rte[3].routing TopoLinkCounter:mean nan
attr interpolationmode none
attr title "Number of links enabled in Topology, mean"
scalar NetK.rte[3].routing TopoLinkCounter:max nan
attr interpolationmode none
attr title "Number of links enabled in Topology, max"
scalar NetK.rte[3].routing TopoLinkCounter:count 0
attr interpolationmode none
attr title "Number of links enabled in Topology, count"
statistic NetK.rte[3].routing outputIf:histogram
field count 0
field mean nan
field stddev nan
field min nan
field max nan
field sum 0
field sqrsum 0
attr interpolationmode none
attr title "output interface for each routed packet, histogram"
bin	-inf	0
bin	0	0
bin	1	0
scalar NetK.rte[3].routing drop:count 0
attr interpolationmode none
attr title "dropped packet byte length, count"
attr unit bytes
scalar NetK.rte[3].routing drop:sum 0
attr interpolationmode none
attr title "dropped packet byte length, sum"
attr unit bytes
statistic NetK.rte[3].routing hopCount:histogram
field count 0
field mean nan
field stddev nan
field min nan
field max nan
field sum 0
field sqrsum 0
attr interpolationmode none
attr title "count number of hops for packet, histogram"
bin	-inf	0
bin	0	0
bin	1	0
scalar NetK.rte[3].routing hopCount:mean nan
attr interpolationmode none
attr title "count number of hops for packet, mean"
scalar NetK.rte[3].routing hopCount:max nan
attr interpolationmode none
attr title "count number of hops for packet, max"
scalar NetK.rte[3].routing hopCount:count 0
attr interpolationmode none
attr title "count number of hops for packet, count"
statistic NetK.rte[3].queue[0] "drop count"
field count 0
field mean nan
field stddev nan
field min nan
field max nan
field sum 0
field sqrsum 0
bin	-inf	0
bin	0	0
bin	1	0
scalar NetK.rte[3].queue[0] rxBytes:count 902
attr interpolationmode none
attr title "received packet byte length, count"
attr unit bytes
scalar NetK.rte[3].queue[0] rxBytes:sum 1353000
attr interpolationmode none
attr title "received packet byte length, sum"
attr unit bytes
statistic NetK.rte[3].queue[0] rxBytes:histogram
field count 902
field mean 1500
field stddev 0
field min 1500
field max 1500
field sum 1353000
field sqrsum 2029500000
attr interpolationmode none
attr title "received packet byte length, histogram"
attr unit bytes
bin	-inf	0
bin	1499	0
bin	1500	902
bin	1501	0
scalar NetK.rte[3].queue[0] txBytes:count 901
attr interpolationmode none
attr title "transmitting packet byte length, count"
attr unit bytes
scalar NetK.rte[3].queue[0] txBytes:sum 1351500
attr interpolationmode none
attr title "transmitting packet byte length, sum"
attr unit bytes
statistic NetK.rte[3].queue[0] txBytes:histogram
field count 901
field mean 1500
field stddev 0
field min 1500
field max 1500
field sum 1351500
field sqrsum 2027250000
attr interpolationmode none
attr title "transmitting packet byte length, histogram"
attr unit bytes
bin	-inf	0
bin	1499	0
bin	1500	901
bin	1501	0
scalar NetK.rte[3].queue[0] busy:timeavg 0.0036030992251937
attr interpolationmode sample-hold
attr title "server busy state, timeavg"
scalar NetK.rte[3].queue[0] qlen:timeavg 1.5590592351912e-005
attr interpolationmode sample-hold
attr title "queue length, timeavg"
scalar NetK.rte[3].queue[0] qlen:max 1
attr interpolationmode sample-hold
attr title "queue length, max"
scalar NetK.rte[3].queue[0] drop:count 0
attr interpolationmode none
attr title "dropped packet byte length, count"
attr unit bytes
scalar NetK.rte[3].queue[0] drop:sum 0
attr interpolationmode none
attr title "dropped packet byte length, sum"
attr unit bytes
statistic NetK.rte[3].queue[1] "drop count"
field count 0
field mean nan
field stddev nan
field min nan
field max nan
field sum 0
field sqrsum 0
bin	-inf	0
bin	0	0
bin	1	0
scalar NetK.rte[3].queue[1] rxBytes:count 682
attr interpolationmode none
attr title "received packet byte length, count"
attr unit bytes
scalar NetK.rte[3].queue[1] rxBytes:sum 1023000
attr interpolationmode none
attr title "received packet byte length, sum"
attr unit bytes
statistic NetK.rte[3].queue[1] rxBytes:histogram
field count 682
field mean 1500
field stddev 0
field min 1500
field max 1500
field sum 1023000
field sqrsum 1534500000
attr interpolationmode none
attr title "received packet byte length, histogram"
attr unit bytes
bin	-inf	0
bin	1499	0
bin	1500	682
bin	1501	0
scalar NetK.rte[3].queue[1] txBytes:count 712
attr interpolationmode none
attr title "transmitting packet byte length, count"
attr unit bytes
scalar NetK.rte[3].queue[1] txBytes:sum 1068000
attr interpolationmode none
attr title "transmitting packet byte length, sum"
attr unit bytes
statistic NetK.rte[3].queue[1] txBytes:histogram
field count 712
field mean 1500
field stddev 0
field min 1500
field max 1500
field sum 1068000
field sqrsum 1602000000
attr interpolationmode none
attr title "transmitting packet byte length, histogram"
attr unit bytes
bin	-inf	0
bin	1499	0
bin	1500	712
bin	1501	0
scalar NetK.rte[3].queue[1] busy:timeavg 0.0028472881779555
attr interpolationmode sample-hold
attr title "server busy state, timeavg"
scalar NetK.rte[3].queue[1] qlen:timeavg 5.2726585020412e-006
attr interpolationmode sample-hold
attr title "queue length, timeavg"
scalar NetK.rte[3].queue[1] qlen:max 1
attr interpolationmode sample-hold
attr title "queue length, max"
scalar NetK.rte[3].queue[1] drop:count 0
attr interpolationmode none
attr title "dropped packet byte length, count"
attr unit bytes
scalar NetK.rte[3].queue[1] drop:sum 0
attr interpolationmode none
attr title "dropped packet byte length, sum"
attr unit bytes
statistic NetK.rte[3].queue[2] "drop count"
field count 0
field mean nan
field stddev nan
field min nan
field max nan
field sum 0
field sqrsum 0
bin	-inf	0
bin	0	0
bin	1	0
scalar NetK.rte[3].queue[2] rxBytes:count 1005
attr interpolationmode none
attr title "received packet byte length, count"
attr unit bytes
scalar NetK.rte[3].queue[2] rxBytes:sum 1507500
attr interpolationmode none
attr title "received packet byte length, sum"
attr unit bytes
statistic NetK.rte[3].queue[2] rxBytes:histogram
field count 1005
field mean 1500
field stddev 0
field min 1500
field max 1500
field sum 1507500
field sqrsum 2261250000
attr interpolationmode none
attr title "received packet byte length, histogram"
attr unit bytes
bin	-inf	0
bin	1499	0
bin	1500	1005
bin	1501	0
scalar NetK.rte[3].queue[2] txBytes:count 1038
attr interpolationmode none
attr title "transmitting packet byte length, count"
attr unit bytes
scalar NetK.rte[3].queue[2] txBytes:sum 1557000
attr interpolationmode none
attr title "transmitting packet byte length, sum"
attr unit bytes
statistic NetK.rte[3].queue[2] txBytes:histogram
field count 1038
field mean 1500
field stddev 0
field min 1500
field max 1500
field sum 1557000
field sqrsum 2335500000
attr interpolationmode none
attr title "transmitting packet byte length, histogram"
attr unit bytes
bin	-inf	0
bin	1499	0
bin	1500	1038
bin	1501	0
scalar NetK.rte[3].queue[2] busy:timeavg 0.0041509622594352
attr interpolationmode sample-hold
attr title "server busy state, timeavg"
scalar NetK.rte[3].queue[2] qlen:timeavg 3.1715067899692e-005
attr interpolationmode sample-hold
attr title "queue length, timeavg"
scalar NetK.rte[3].queue[2] qlen:max 1
attr interpolationmode sample-hold
attr title "queue length, max"
scalar NetK.rte[3].queue[2] drop:count 0
attr interpolationmode none
attr title "dropped packet byte length, count"
attr unit bytes
scalar NetK.rte[3].queue[2] drop:sum 0
attr interpolationmode none
attr title "dropped packet byte length, sum"
attr unit bytes
statistic NetK.rte[3].queue[3] "drop count"
field count 0
field mean nan
field stddev nan
field min nan
field max nan
field sum 0
field sqrsum 0
bin	-inf	0
bin	0	0
bin	1	0
scalar NetK.rte[3].queue[3] rxBytes:count 246
attr interpolationmode none
attr title "received packet byte length, count"
attr unit bytes
scalar NetK.rte[3].queue[3] rxBytes:sum 369000
attr interpolationmode none
attr title "received packet byte length, sum"
attr unit bytes
statistic NetK.rte[3].queue[3] rxBytes:histogram
field count 246
field mean 1500
field stddev 0
field min 1500
field max 1500
field sum 369000
field sqrsum 553500000
attr interpolationmode none
attr title "received packet byte length, histogram"
attr unit bytes
bin	-inf	0
bin	1499	0
bin	1500	246
bin	1501	0
scalar NetK.rte[3].queue[3] txBytes:count 208
attr interpolationmode none
attr title "transmitting packet byte length, count"
attr unit bytes
scalar NetK.rte[3].queue[3] txBytes:sum 312000
attr interpolationmode none
attr title "transmitting packet byte length, sum"
attr unit bytes
statistic NetK.rte[3].queue[3] txBytes:histogram
field count 208
field mean 1500
field stddev 0
field min 1500
field max 1500
field sum 312000
field sqrsum 468000000
attr interpolationmode none
attr title "transmitting packet byte length, histogram"
attr unit bytes
bin	-inf	0
bin	1499	0
bin	1500	208
bin	1501	0
scalar NetK.rte[3].queue[3] busy:timeavg 0.00083179205198701
attr interpolationmode sample-hold
attr title "server busy state, timeavg"
scalar NetK.rte[3].queue[3] qlen:timeavg 1.599600099975e-005
attr interpolationmode sample-hold
attr title "queue length, timeavg"
scalar NetK.rte[3].queue[3] qlen:max 1
attr interpolationmode sample-hold
attr title "queue length, max"
scalar NetK.rte[3].queue[3] drop:count 0
attr interpolationmode none
attr title "dropped packet byte length, count"
attr unit bytes
scalar NetK.rte[3].queue[3] drop:sum 0
attr interpolationmode none
attr title "dropped packet byte length, sum"
attr unit bytes
statistic NetK.rte[3].queue[4] "drop count"
field count 0
field mean nan
field stddev nan
field min nan
field max nan
field sum 0
field sqrsum 0
bin	-inf	0
bin	0	0
bin	1	0
scalar NetK.rte[3].queue[4] rxBytes:count 504
attr interpolationmode none
attr title "received packet byte length, count"
attr unit bytes
scalar NetK.rte[3].queue[4] rxBytes:sum 756000
attr interpolationmode none
attr title "received packet byte length, sum"
attr unit bytes
statistic NetK.rte[3].queue[4] rxBytes:histogram
field count 504
field mean 1500
field stddev 0
field min 1500
field max 1500
field sum 756000
field sqrsum 1134000000
attr interpolationmode none
attr title "received packet byte length, histogram"
attr unit bytes
bin	-inf	0
bin	1499	0
bin	1500	504
bin	1501	0
scalar NetK.rte[3].queue[4] txBytes:count 583
attr interpolationmode none
attr title "transmitting packet byte length, count"
attr unit bytes
scalar NetK.rte[3].queue[4] txBytes:sum 874500
attr interpolationmode none
attr title "transmitting packet byte length, sum"
attr unit bytes
statistic NetK.rte[3].queue[4] txBytes:histogram
field count 583
field mean 1500
field stddev 0
field min 1500
field max 1500
field sum 874500
field sqrsum 1311750000
attr interpolationmode none
attr title "transmitting packet byte length, histogram"
attr unit bytes
bin	-inf	0
bin	1499	0
bin	1500	583
bin	1501	0
scalar NetK.rte[3].queue[4] busy:timeavg 0.0023314171457136
attr interpolationmode sample-hold
attr title "server busy state, timeavg"
scalar NetK.rte[3].queue[4] qlen:timeavg 1.3358115471132e-005
attr interpolationmode sample-hold
attr title "queue length, timeavg"
scalar NetK.rte[3].queue[4] qlen:max 1
attr interpolationmode sample-hold
attr title "queue length, max"
scalar NetK.rte[3].queue[4] drop:count 0
attr interpolationmode none
attr title "dropped packet byte length, count"
attr unit bytes
scalar NetK.rte[3].queue[4] drop:sum 0
attr interpolationmode none
attr title "dropped packet byte length, sum"
attr unit bytes
statistic NetK.rte[3].queue[5] "drop count"
field count 0
field mean nan
field stddev nan
field min nan
field max nan
field sum 0
field sqrsum 0
bin	-inf	0
bin	0	0
bin	1	0
scalar NetK.rte[3].queue[5] rxBytes:count 11208
attr interpolationmode none
attr title "received packet byte length, count"
attr unit bytes
scalar NetK.rte[3].queue[5] rxBytes:sum 16812000
attr interpolationmode none
attr title "received packet byte length, sum"
attr unit bytes
statistic NetK.rte[3].queue[5] rxBytes:histogram
field count 11208
field mean 1500
field stddev 0
field min 1500
field max 1500
field sum 16812000
field sqrsum 25218000000
attr interpolationmode none
attr title "received packet byte length, histogram"
attr unit bytes
bin	-inf	0
bin	1499	0
bin	1500	11208
bin	1501	0
scalar NetK.rte[3].queue[5] txBytes:count 11125
attr interpolationmode none
attr title "transmitting packet byte length, count"
attr unit bytes
scalar NetK.rte[3].queue[5] txBytes:sum 16687500
attr interpolationmode none
attr title "transmitting packet byte length, sum"
attr unit bytes
statistic NetK.rte[3].queue[5] txBytes:histogram
field count 11125
field mean 1500
field stddev 0
field min 1500
field max 1500
field sum 16687500
field sqrsum 25031250000
attr interpolationmode none
attr title "transmitting packet byte length, histogram"
attr unit bytes
bin	-inf	0
bin	1499	0
bin	1500	11125
bin	1501	0
scalar NetK.rte[3].queue[5] busy:timeavg 0.044488877780565
attr interpolationmode sample-hold
attr title "server busy state, timeavg"
scalar NetK.rte[3].queue[5] qlen:timeavg 0
attr interpolationmode sample-hold
attr title "queue length, timeavg"
scalar NetK.rte[3].queue[5] qlen:max 0
attr interpolationmode sample-hold
attr title "queue length, max"
scalar NetK.rte[3].queue[5] drop:count 0
attr interpolationmode none
attr title "dropped packet byte length, count"
attr unit bytes
scalar NetK.rte[3].queue[5] drop:sum 0
attr interpolationmode none
attr title "dropped packet byte length, sum"
attr unit bytes
scalar NetK.rte[4].app #sent -1.0050347844233e+308
scalar NetK.rte[4].app #received -1.0050339276102e+308
statistic NetK.rte[4].app "hop count"
field count 0
field mean nan
field stddev nan
field min nan
field max nan
field sum 0
field sqrsum 0
bin	-inf	0
bin	0	0
bin	1	0
scalar NetK.rte[4].app hopCount:mean nan
attr interpolationmode none
attr title "hop count of arrived packets, mean"
scalar NetK.rte[4].app hopCount:max nan
attr interpolationmode none
attr title "hop count of arrived packets, max"
scalar NetK.rte[4].app hopCount:count 0
attr interpolationmode none
attr title "hop count of arrived packets, count"
statistic NetK.rte[4].app hopCount:histogram
field count 0
field mean nan
field stddev nan
field min nan
field max nan
field sum 0
field sqrsum 0
attr interpolationmode none
attr title "hop count of arrived packets, histogram"
bin	-inf	0
bin	0	0
bin	1	0
scalar NetK.rte[4].app endToEndDelay:mean nan
attr interpolationmode none
attr title "end-to-end delay of arrived packets, mean"
attr unit s
scalar NetK.rte[4].app endToEndDelay:max nan
attr interpolationmode none
attr title "end-to-end delay of arrived packets, max"
attr unit s
scalar NetK.rte[4].app endToEndDelay:count 0
attr interpolationmode none
attr title "end-to-end delay of arrived packets, count"
attr unit s
scalar NetK.rte[4].routing "Terminal Messages dropped due to wrong prediction" 3
statistic NetK.rte[4].routing TopoLinkCounter:histogram
field count 0
field mean nan
field stddev nan
field min nan
field max nan
field sum 0
field sqrsum 0
attr interpolationmode none
attr title "Number of links enabled in Topology, histogram"
bin	-inf	0
bin	0	0
bin	1	0
scalar NetK.rte[4].routing TopoLinkCounter:mean nan
attr interpolationmode none
attr title "Number of links enabled in Topology, mean"
scalar NetK.rte[4].routing TopoLinkCounter:max nan
attr interpolationmode none
attr title "Number of links enabled in Topology, max"
scalar NetK.rte[4].routing TopoLinkCounter:count 0
attr interpolationmode none
attr title "Number of links enabled in Topology, count"
statistic NetK.rte[4].routing outputIf:histogram
field count 0
field mean nan
field stddev nan
field min nan
field max nan
field sum 0
field sqrsum 0
attr interpolationmode none
attr title "output interface for each routed packet, histogram"
bin	-inf	0
bin	0	0
bin	1	0
scalar NetK.rte[4].routing drop:count 0
attr interpolationmode none
attr title "dropped packet byte length, count"
attr unit bytes
scalar NetK.rte[4].routing drop:sum 0
attr interpolationmode none
attr title "dropped packet byte length, sum"
attr unit bytes
statistic NetK.rte[4].routing hopCount:histogram
field count 0
field mean nan
field stddev nan
field min nan
field max nan
field sum 0
field sqrsum 0
attr interpolationmode none
attr title "count number of hops for packet, histogram"
bin	-inf	0
bin	0	0
bin	1	0
scalar NetK.rte[4].routing hopCount:mean nan
attr interpolationmode none
attr title "count number of hops for packet, mean"
scalar NetK.rte[4].routing hopCount:max nan
attr interpolationmode none
attr title "count number of hops for packet, max"
scalar NetK.rte[4].routing hopCount:count 0
attr interpolationmode none
attr title "count number of hops for packet, count"
statistic NetK.rte[4].queue[0] "drop count"
field count 0
field mean nan
field stddev nan
field min nan
field max nan
field sum 0
field sqrsum 0
bin	-inf	0
bin	0	0
bin	1	0
scalar NetK.rte[4].queue[0] rxBytes:count 712
attr interpolationmode none
attr title "received packet byte length, count"
attr unit bytes
scalar NetK.rte[4].queue[0] rxBytes:sum 1068000
attr interpolationmode none
attr title "received packet byte length, sum"
attr unit bytes
statistic NetK.rte[4].queue[0] rxBytes:histogram
field count 712
field mean 1500
field stddev 0
field min 1500
field max 1500
field sum 1068000
field sqrsum 1602000000
attr interpolationmode none
attr title "received packet byte length, histogram"
attr unit bytes
bin	-inf	0
bin	1499	0
bin	1500	712
bin	1501	0
scalar NetK.rte[4].queue[0] txBytes:count 682
attr interpolationmode none
attr title "transmitting packet byte length, count"
attr unit bytes
scalar NetK.rte[4].queue[0] txBytes:sum 1023000
attr interpolationmode none
attr title "transmitting packet byte length, sum"
attr unit bytes
statistic NetK.rte[4].queue[0] txBytes:histogram
field count 682
field mean 1500
field stddev 0
field min 1500
field max 1500
field sum 1023000
field sqrsum 1534500000
attr interpolationmode none
attr title "transmitting packet byte length, histogram"
attr unit bytes
bin	-inf	0
bin	1499	0
bin	1500	682
bin	1501	0
scalar NetK.rte[4].queue[0] busy:timeavg 0.0027273181704574
attr interpolationmode sample-hold
attr title "server busy state, timeavg"
scalar NetK.rte[4].queue[0] qlen:timeavg 0
attr interpolationmode sample-hold
attr title "queue length, timeavg"
scalar NetK.rte[4].queue[0] qlen:max 0
attr interpolationmode sample-hold
attr title "queue length, max"
scalar NetK.rte[4].queue[0] drop:count 0
attr interpolationmode none
attr title "dropped packet byte length, count"
attr unit bytes
scalar NetK.rte[4].queue[0] drop:sum 0
attr interpolationmode none
attr title "dropped packet byte length, sum"
attr unit bytes
statistic NetK.rte[4].queue[1] "drop count"
field count 0
field mean nan
field stddev nan
field min nan
field max nan
field sum 0
field sqrsum 0
bin	-inf	0
bin	0	0
bin	1	0
scalar NetK.rte[4].queue[1] rxBytes:count 871
attr interpolationmode none
attr title "received packet byte length, count"
attr unit bytes
scalar NetK.rte[4].queue[1] rxBytes:sum 1306500
attr interpolationmode none
attr title "received packet byte length, sum"
attr unit bytes
statistic NetK.rte[4].queue[1] rxBytes:histogram
field count 871
field mean 1500
field stddev 0
field min 1500
field max 1500
field sum 1306500
field sqrsum 1959750000
attr interpolationmode none
attr title "received packet byte length, histogram"
attr unit bytes
bin	-inf	0
bin	1499	0
bin	1500	871
bin	1501	0
scalar NetK.rte[4].queue[1] txBytes:count 825
attr interpolationmode none
attr title "transmitting packet byte length, count"
attr unit bytes
scalar NetK.rte[4].queue[1] txBytes:sum 1237500
attr interpolationmode none
attr title "transmitting packet byte length, sum"
attr unit bytes
statistic NetK.rte[4].queue[1] txBytes:histogram
field count 825
field mean 1500
field stddev 0
field min 1500
field max 1500
field sum 1237500
field sqrsum 1856250000
attr interpolationmode none
attr title "transmitting packet byte length, histogram"
attr unit bytes
bin	-inf	0
bin	1499	0
bin	1500	825
bin	1501	0
scalar NetK.rte[4].queue[1] busy:timeavg 0.0032991752061984
attr interpolationmode sample-hold
attr title "server busy state, timeavg"
scalar NetK.rte[4].queue[1] qlen:timeavg 0
attr interpolationmode sample-hold
attr title "queue length, timeavg"
scalar NetK.rte[4].queue[1] qlen:max 0
attr interpolationmode sample-hold
attr title "queue length, max"
scalar NetK.rte[4].queue[1] drop:count 0
attr interpolationmode none
attr title "dropped packet byte length, count"
attr unit bytes
scalar NetK.rte[4].queue[1] drop:sum 0
attr interpolationmode none
attr title "dropped packet byte length, sum"
attr unit bytes
statistic NetK.rte[4].queue[2] "drop count"
field count 0
field mean nan
field stddev nan
field min nan
field max nan
field sum 0
field sqrsum 0
bin	-inf	0
bin	0	0
bin	1	0
scalar NetK.rte[4].queue[2] rxBytes:count 520
attr interpolationmode none
attr title "received packet byte length, count"
attr unit bytes
scalar NetK.rte[4].queue[2] rxBytes:sum 780000
attr interpolationmode none
attr title "received packet byte length, sum"
attr unit bytes
statistic NetK.rte[4].queue[2] rxBytes:histogram
field count 520
field mean 1500
field stddev 0
field min 1500
field max 1500
field sum 780000
field sqrsum 1170000000
attr interpolationmode none
attr title "received packet byte length, histogram"
attr unit bytes
bin	-inf	0
bin	1499	0
bin	1500	520
bin	1501	0
scalar NetK.rte[4].queue[2] txBytes:count 535
attr interpolationmode none
attr title "transmitting packet byte length, count"
attr unit bytes
scalar NetK.rte[4].queue[2] txBytes:sum 802500
attr interpolationmode none
attr title "transmitting packet byte length, sum"
attr unit bytes
statistic NetK.rte[4].queue[2] txBytes:histogram
field count 535
field mean 1500
field stddev 0
field min 1500
field max 1500
field sum 802500
field sqrsum 1203750000
attr interpolationmode none
attr title "transmitting packet byte length, histogram"
attr unit bytes
bin	-inf	0
bin	1499	0
bin	1500	535
bin	1501	0
scalar NetK.rte[4].queue[2] busy:timeavg 0.0021394651337166
attr interpolationmode sample-hold
attr title "server busy state, timeavg"
scalar NetK.rte[4].queue[2] qlen:timeavg 4.3949345996834e-006
attr interpolationmode sample-hold
attr title "queue length, timeavg"
scalar NetK.rte[4].queue[2] qlen:max 1
attr interpolationmode sample-hold
attr title "queue length, max"
scalar NetK.rte[4].queue[2] drop:count 0
attr interpolationmode none
attr title "dropped packet byte length, count"
attr unit bytes
scalar NetK.rte[4].queue[2] drop:sum 0
attr interpolationmode none
attr title "dropped packet byte length, sum"
attr unit bytes
statistic NetK.rte[4].queue[3] "drop count"
field count 0
field mean nan
field stddev nan
field min nan
field max nan
field sum 0
field sqrsum 0
bin	-inf	0
bin	0	0
bin	1	0
scalar NetK.rte[4].queue[3] rxBytes:count 243
attr interpolationmode none
attr title "received packet byte length, count"
attr unit bytes
scalar NetK.rte[4].queue[3] rxBytes:sum 364500
attr interpolationmode none
attr title "received packet byte length, sum"
attr unit bytes
statistic NetK.rte[4].queue[3] rxBytes:histogram
field count 243
field mean 1500
field stddev 0
field min 1500
field max 1500
field sum 364500
field sqrsum 546750000
attr interpolationmode none
attr title "received packet byte length, histogram"
attr unit bytes
bin	-inf	0
bin	1499	0
bin	1500	243
bin	1501	0
scalar NetK.rte[4].queue[3] txBytes:count 342
attr interpolationmode none
attr title "transmitting packet byte length, count"
attr unit bytes
scalar NetK.rte[4].queue[3] txBytes:sum 513000
attr interpolationmode none
attr title "transmitting packet byte length, sum"
attr unit bytes
statistic NetK.rte[4].queue[3] txBytes:histogram
field count 342
field mean 1500
field stddev 0
field min 1500
field max 1500
field sum 513000
field sqrsum 769500000
attr interpolationmode none
attr title "transmitting packet byte length, histogram"
attr unit bytes
bin	-inf	0
bin	1499	0
bin	1500	342
bin	1501	0
scalar NetK.rte[4].queue[3] busy:timeavg 0.0013676580854786
attr interpolationmode sample-hold
attr title "server busy state, timeavg"
scalar NetK.rte[4].queue[3] qlen:timeavg 0
attr interpolationmode sample-hold
attr title "queue length, timeavg"
scalar NetK.rte[4].queue[3] qlen:max 0
attr interpolationmode sample-hold
attr title "queue length, max"
scalar NetK.rte[4].queue[3] drop:count 0
attr interpolationmode none
attr title "dropped packet byte length, count"
attr unit bytes
scalar NetK.rte[4].queue[3] drop:sum 0
attr interpolationmode none
attr title "dropped packet byte length, sum"
attr unit bytes
statistic NetK.rte[4].queue[4] "drop count"
field count 0
field mean nan
field stddev nan
field min nan
field max nan
field sum 0
field sqrsum 0
bin	-inf	0
bin	0	0
bin	1	0
scalar NetK.rte[4].queue[4] rxBytes:count 272
attr interpolationmode none
attr title "received packet byte length, count"
attr unit bytes
[...]
bin	0	0
bin	1	0
scalar NetK.rte[23].queue[4] rxBytes:count 307
attr interpolationmode none
attr title "received packet byte length, count"
attr unit bytes
scalar NetK.rte[23].queue[4] rxBytes:sum 460500
attr interpolationmode none
attr title "received packet byte length, sum"
attr unit bytes
statistic NetK.rte[23].queue[4] rxBytes:histogram
field count 307
field mean 1500
field stddev 0
field min 1500
field max 1500
field sum 460500
field sqrsum 690750000
attr interpolationmode none
attr title "received packet byte length, histogram"
attr unit bytes
bin	-inf	0
bin	1499	0
bin	1500	307
bin	1501	0
scalar NetK.rte[23].queue[4] txBytes:count 272
attr interpolationmode none
attr title "transmitting packet byte length, count"
attr unit bytes
scalar NetK.rte[23].queue[4] txBytes:sum 408000
attr interpolationmode none
attr title "transmitting packet byte length, sum"
attr unit bytes
statistic NetK.rte[23].queue[4] txBytes:histogram
field count 272
field mean 1500
field stddev 0
field min 1500
field max 1500
field sum 408000
field sqrsum 612000000
attr interpolationmode none
attr title "transmitting packet byte length, histogram"
attr unit bytes
bin	-inf	0
bin	1499	0
bin	1500	272
bin	1501	0
scalar NetK.rte[23].queue[4] busy:timeavg 0.001087728067983
attr interpolationmode sample-hold
attr title "server busy state, timeavg"
scalar NetK.rte[23].queue[4] qlen:timeavg 0
attr interpolationmode sample-hold
attr title "queue length, timeavg"
scalar NetK.rte[23].queue[4] qlen:max 0
attr interpolationmode sample-hold
attr title "queue length, max"
scalar NetK.rte[23].queue[4] drop:count 0
attr interpolationmode none
attr title "dropped packet byte length, count"
attr unit bytes
scalar NetK.rte[23].queue[4] drop:sum 0
attr interpolationmode none
attr title "dropped packet byte length, sum"
attr unit bytes
statistic NetK.rte[23].queue[5] "drop count"
field count 0
field mean nan
field stddev nan
field min nan
field max nan
field sum 0
field sqrsum 0
bin	-inf	0
bin	0	0
bin	1	0
scalar NetK.rte[23].queue[5] rxBytes:count 733
attr interpolationmode none
attr title "received packet byte length, count"
attr unit bytes
scalar NetK.rte[23].queue[5] rxBytes:sum 1099500
attr interpolationmode none
attr title "received packet byte length, sum"
attr unit bytes
statistic NetK.rte[23].queue[5] rxBytes:histogram
field count 733
field mean 1500
field stddev 0
field min 1500
field max 1500
field sum 1099500
field sqrsum 1649250000
attr interpolationmode none
attr title "received packet byte length, histogram"
attr unit bytes
bin	-inf	0
bin	1499	0
bin	1500	733
bin	1501	0
scalar NetK.rte[23].queue[5] txBytes:count 786
attr interpolationmode none
attr title "transmitting packet byte length, count"
attr unit bytes
scalar NetK.rte[23].queue[5] txBytes:sum 1179000
attr interpolationmode none
attr title "transmitting packet byte length, sum"
attr unit bytes
statistic NetK.rte[23].queue[5] txBytes:histogram
field count 786
field mean 1500
field stddev 0
field min 1500
field max 1500
field sum 1179000
field sqrsum 1768500000
attr interpolationmode none
attr title "transmitting packet byte length, histogram"
attr unit bytes
bin	-inf	0
bin	1499	0
bin	1500	786
bin	1501	0
scalar NetK.rte[23].queue[5] busy:timeavg 0.0031432141964509
attr interpolationmode sample-hold
attr title "server busy state, timeavg"
scalar NetK.rte[23].queue[5] qlen:timeavg 4.7796200949763e-006
attr interpolationmode sample-hold
attr title "queue length, timeavg"
scalar NetK.rte[23].queue[5] qlen:max 1
attr interpolationmode sample-hold
attr title "queue length, max"
scalar NetK.rte[23].queue[5] drop:count 0
attr interpolationmode none
attr title "dropped packet byte length, count"
attr unit bytes
scalar NetK.rte[23].queue[5] drop:sum 0
attr interpolationmode none
attr title "dropped packet byte length, sum"
attr unit bytes
scalar NetK.rte[24].app #sent 0
scalar NetK.rte[24].app #received 0
statistic NetK.rte[24].app "hop count"
field count 0
field mean nan
field stddev nan
field min nan
field max nan
field sum 0
field sqrsum 0
bin	-inf	0
bin	0	0
bin	1	0
scalar NetK.rte[24].app hopCount:mean nan
attr interpolationmode none
attr title "hop count of arrived packets, mean"
scalar NetK.rte[24].app hopCount:max nan
attr interpolationmode none
attr title "hop count of arrived packets, max"
scalar NetK.rte[24].app hopCount:count 0
attr interpolationmode none
attr title "hop count of arrived packets, count"
statistic NetK.rte[24].app hopCount:histogram
field count 0
field mean nan
field stddev nan
field min nan
field max nan
field sum 0
field sqrsum 0
attr interpolationmode none
attr title "hop count of arrived packets, histogram"
bin	-inf	0
bin	0	0
bin	1	0
scalar NetK.rte[24].app endToEndDelay:mean nan
attr interpolationmode none
attr title "end-to-end delay of arrived packets, mean"
attr unit s
scalar NetK.rte[24].app endToEndDelay:max nan
attr interpolationmode none
attr title "end-to-end delay of arrived packets, max"
attr unit s
scalar NetK.rte[24].app endToEndDelay:count 0
attr interpolationmode none
attr title "end-to-end delay of arrived packets, count"
attr unit s
scalar NetK.rte[24].routing "Terminal Messages dropped due to wrong prediction" 0
statistic NetK.rte[24].routing TopoLinkCounter:histogram
field count 0
field mean nan
field stddev nan
field min nan
field max nan
field sum 0
field sqrsum 0
attr interpolationmode none
attr title "Number of links enabled in Topology, histogram"
bin	-inf	0
bin	0	0
bin	1	0
scalar NetK.rte[24].routing TopoLinkCounter:mean nan
attr interpolationmode none
attr title "Number of links enabled in Topology, mean"
scalar NetK.rte[24].routing TopoLinkCounter:max nan
attr interpolationmode none
attr title "Number of links enabled in Topology, max"
scalar NetK.rte[24].routing TopoLinkCounter:count 0
attr interpolationmode none
attr title "Number of links enabled in Topology, count"
statistic NetK.rte[24].routing outputIf:histogram
field count 0
field mean nan
field stddev nan
field min nan
field max nan
field sum 0
field sqrsum 0
attr interpolationmode none
attr title "output interface for each routed packet, histogram"
bin	-inf	0
bin	0	0
bin	1	0
scalar NetK.rte[24].routing drop:count 0
attr interpolationmode none
attr title "dropped packet byte length, count"
attr unit bytes
scalar NetK.rte[24].routing drop:sum 0
attr interpolationmode none
attr title "dropped packet byte length, sum"
attr unit bytes
statistic NetK.rte[24].routing hopCount:histogram
field count 0
field mean nan
field stddev nan
field min nan
field max nan
field sum 0
field sqrsum 0
attr interpolationmode none
attr title "count number of hops for packet, histogram"
bin	-inf	0
bin	0	0
bin	1	0
scalar NetK.rte[24].routing hopCount:mean nan
attr interpolationmode none
attr title "count number of hops for packet, mean"
scalar NetK.rte[24].routing hopCount:max nan
attr interpolationmode none
attr title "count number of hops for packet, max"
scalar NetK.rte[24].routing hopCount:count 0
attr interpolationmode none
attr title "count number of hops for packet, count"
statistic NetK.rte[24].queue[0] "drop count"
field count 0
field mean nan
field stddev nan
field min nan
field max nan
field sum 0
field sqrsum 0
bin	-inf	0
bin	0	0
bin	1	0
scalar NetK.rte[24].queue[0] rxBytes:count 911
attr interpolationmode none
attr title "received packet byte length, count"
attr unit bytes
scalar NetK.rte[24].queue[0] rxBytes:sum 1366500
attr interpolationmode none
attr title "received packet byte length, sum"
attr unit bytes
statistic NetK.rte[24].queue[0] rxBytes:histogram
field count 911
field mean 1500
field stddev 0
field min 1500
field max 1500
field sum 1366500
field sqrsum 2049750000
attr interpolationmode none
attr title "received packet byte length, histogram"
attr unit bytes
bin	-inf	0
bin	1499	0
bin	1500	911
bin	1501	0
scalar NetK.rte[24].queue[0] txBytes:count 869
attr interpolationmode none
attr title "transmitting packet byte length, count"
attr unit bytes
scalar NetK.rte[24].queue[0] txBytes:sum 1303500
attr interpolationmode none
attr title "transmitting packet byte length, sum"
attr unit bytes
statistic NetK.rte[24].queue[0] txBytes:histogram
field count 869
field mean 1500
field stddev 0
field min 1500
field max 1500
field sum 1303500
field sqrsum 1955250000
attr interpolationmode none
attr title "transmitting packet byte length, histogram"
attr unit bytes
bin	-inf	0
bin	1499	0
bin	1500	869
bin	1501	0
scalar NetK.rte[24].queue[0] busy:timeavg 0.0034751312171957
attr interpolationmode sample-hold
attr title "server busy state, timeavg"
scalar NetK.rte[24].queue[0] qlen:timeavg 0
attr interpolationmode sample-hold
attr title "queue length, timeavg"
scalar NetK.rte[24].queue[0] qlen:max 0
attr interpolationmode sample-hold
attr title "queue length, max"
scalar NetK.rte[24].queue[0] drop:count 0
attr interpolationmode none
attr title "dropped packet byte length, count"
attr unit bytes
scalar NetK.rte[24].queue[0] drop:sum 0
attr interpolationmode none
attr title "dropped packet byte length, sum"
attr unit bytes
statistic NetK.rte[24].queue[1] "drop count"
field count 0
field mean nan
field stddev nan
field min nan
field max nan
field sum 0
field sqrsum 0
bin	-inf	0
bin	0	0
bin	1	0
scalar NetK.rte[24].queue[1] rxBytes:count 1236
attr interpolationmode none
attr title "received packet byte length, count"
attr unit bytes
scalar NetK.rte[24].queue[1] rxBytes:sum 1854000
attr interpolationmode none
attr title "received packet byte length, sum"
attr unit bytes
statistic NetK.rte[24].queue[1] rxBytes:histogram
field count 1236
field mean 1500
field stddev 0
field min 1500
field max 1500
field sum 1854000
field sqrsum 2781000000
attr interpolationmode none
attr title "received packet byte length, histogram"
attr unit bytes
bin	-inf	0
bin	1499	0
bin	1500	1236
bin	1501	0
scalar NetK.rte[24].queue[1] txBytes:count 1309
attr interpolationmode none
attr title "transmitting packet byte length, count"
attr unit bytes
scalar NetK.rte[24].queue[1] txBytes:sum 1963500
attr interpolationmode none
attr title "transmitting packet byte length, sum"
attr unit bytes
statistic NetK.rte[24].queue[1] txBytes:histogram
field count 1309
field mean 1500
field stddev 0
field min 1500
field max 1500
field sum 1963500
field sqrsum 2945250000
attr interpolationmode none
attr title "transmitting packet byte length, histogram"
attr unit bytes
bin	-inf	0
bin	1499	0
bin	1500	1309
bin	1501	0
scalar NetK.rte[24].queue[1] busy:timeavg 0.0052346913271683
attr interpolationmode sample-hold
attr title "server busy state, timeavg"
scalar NetK.rte[24].queue[1] qlen:timeavg 0.00059585103724069
attr interpolationmode sample-hold
attr title "queue length, timeavg"
scalar NetK.rte[24].queue[1] qlen:max 1
attr interpolationmode sample-hold
attr title "queue length, max"
scalar NetK.rte[24].queue[1] drop:count 0
attr interpolationmode none
attr title "dropped packet byte length, count"
attr unit bytes
scalar NetK.rte[24].queue[1] drop:sum 0
attr interpolationmode none
attr title "dropped packet byte length, sum"
attr unit bytes
statistic NetK.rte[24].queue[2] "drop count"
field count 0
field mean nan
field stddev nan
field min nan
field max nan
field sum 0
field sqrsum 0
bin	-inf	0
bin	0	0
bin	1	0
scalar NetK.rte[24].queue[2] rxBytes:count 604
attr interpolationmode none
attr title "received packet byte length, count"
attr unit bytes
scalar NetK.rte[24].queue[2] rxBytes:sum 906000
attr interpolationmode none
attr title "received packet byte length, sum"
attr unit bytes
statistic NetK.rte[24].queue[2] rxBytes:histogram
field count 604
field mean 1500
field stddev 0
field min 1500
field max 1500
field sum 906000
field sqrsum 1359000000
attr interpolationmode none
attr title "received packet byte length, histogram"
attr unit bytes
bin	-inf	0
bin	1499	0
bin	1500	604
bin	1501	0
scalar NetK.rte[24].queue[2] txBytes:count 589
attr interpolationmode none
attr title "transmitting packet byte length, count"
attr unit bytes
scalar NetK.rte[24].queue[2] txBytes:sum 883500
attr interpolationmode none
attr title "transmitting packet byte length, sum"
attr unit bytes
statistic NetK.rte[24].queue[2] txBytes:histogram
field count 589
field mean 1500
field stddev 0
field min 1500
field max 1500
field sum 883500
field sqrsum 1325250000
attr interpolationmode none
attr title "transmitting packet byte length, histogram"
attr unit bytes
bin	-inf	0
bin	1499	0
bin	1500	589
bin	1501	0
scalar NetK.rte[24].queue[2] busy:timeavg 0.0023554111472132
attr interpolationmode sample-hold
attr title "server busy state, timeavg"
scalar NetK.rte[24].queue[2] qlen:timeavg 0
attr interpolationmode sample-hold
attr title "queue length, timeavg"
scalar NetK.rte[24].queue[2] qlen:max 0
attr interpolationmode sample-hold
attr title "queue length, max"
scalar NetK.rte[24].queue[2] drop:count 0
attr interpolationmode none
attr title "dropped packet byte length, count"
attr unit bytes
scalar NetK.rte[24].queue[2] drop:sum 0
attr interpolationmode none
attr title "dropped packet byte length, sum"
attr unit bytes
statistic NetK.rte[24].queue[3] "drop count"
field count 0
field mean nan
field stddev nan
field min nan
field max nan
field sum 0
field sqrsum 0
bin	-inf	0
bin	0	0
bin	1	0
scalar NetK.rte[24].queue[3] rxBytes:count 342
attr interpolationmode none
attr title "received packet byte length, count"
attr unit bytes
scalar NetK.rte[24].queue[3] rxBytes:sum 513000
attr interpolationmode none
attr title "received packet byte length, sum"
attr unit bytes
statistic NetK.rte[24].queue[3] rxBytes:histogram
field count 342
field mean 1500
field stddev 0
field min 1500
field max 1500
field sum 513000
field sqrsum 769500000
attr interpolationmode none
attr title "received packet byte length, histogram"
attr unit bytes
bin	-inf	0
bin	1499	0
bin	1500	342
bin	1501	0
scalar NetK.rte[24].queue[3] txBytes:count 243
attr interpolationmode none
attr title "transmitting packet byte length, count"
attr unit bytes
scalar NetK.rte[24].queue[3] txBytes:sum 364500
attr interpolationmode none
attr title "transmitting packet byte length, sum"
attr unit bytes
statistic NetK.rte[24].queue[3] txBytes:histogram
field count 243
field mean 1500
field stddev 0
field min 1500
field max 1500
field sum 364500
field sqrsum 546750000
attr interpolationmode none
attr title "transmitting packet byte length, histogram"
attr unit bytes
bin	-inf	0
bin	1499	0
bin	1500	243
bin	1501	0
scalar NetK.rte[24].queue[3] busy:timeavg 0.00097175706073482
attr interpolationmode sample-hold
attr title "server busy state, timeavg"
scalar NetK.rte[24].queue[3] qlen:timeavg 0
attr interpolationmode sample-hold
attr title "queue length, timeavg"
scalar NetK.rte[24].queue[3] qlen:max 0
attr interpolationmode sample-hold
attr title "queue length, max"
scalar NetK.rte[24].queue[3] drop:count 0
attr interpolationmode none
attr title "dropped packet byte length, count"
attr unit bytes
scalar NetK.rte[24].queue[3] drop:sum 0
attr interpolationmode none
attr title "dropped packet byte length, sum"
attr unit bytes
statistic NetK.rte[24].queue[4] "drop count"
field count 0
field mean nan
field stddev nan
field min nan
field max nan
field sum 0
field sqrsum 0
bin	-inf	0
bin	0	0
bin	1	0
scalar NetK.rte[24].queue[4] rxBytes:count 187
attr interpolationmode none
attr title "received packet byte length, count"
attr unit bytes
scalar NetK.rte[24].queue[4] rxBytes:sum 280500
attr interpolationmode none
attr title "received packet byte length, sum"
attr unit bytes
statistic NetK.rte[24].queue[4] rxBytes:histogram
field count 187
field mean 1500
field stddev 0
field min 1500
field max 1500
field sum 280500
field sqrsum 420750000
attr interpolationmode none
attr title "received packet byte length, histogram"
attr unit bytes
bin	-inf	0
bin	1499	0
bin	1500	187
bin	1501	0
scalar NetK.rte[24].queue[4] txBytes:count 212
attr interpolationmode none
attr title "transmitting packet byte length, count"
attr unit bytes
scalar NetK.rte[24].queue[4] txBytes:sum 318000
attr interpolationmode none
attr title "transmitting packet byte length, sum"
attr unit bytes
statistic NetK.rte[24].queue[4] txBytes:histogram
field count 212
field mean 1500
field stddev 0
field min 1500
field max 1500
field sum 318000
field sqrsum 477000000
attr interpolationmode none
attr title "transmitting packet byte length, histogram"
attr unit bytes
bin	-inf	0
bin	1499	0
bin	1500	212
bin	1501	0
scalar NetK.rte[24].queue[4] busy:timeavg 0.00084778805298676
attr interpolationmode sample-hold
attr title "server busy state, timeavg"
scalar NetK.rte[24].queue[4] qlen:timeavg 0
attr interpolationmode sample-hold
attr title "queue length, timeavg"
scalar NetK.rte[24].queue[4] qlen:max 0
attr interpolationmode sample-hold
attr title "queue length, max"
scalar NetK.rte[24].queue[4] drop:count 0
attr interpolationmode none
attr title "dropped packet byte length, count"
attr unit bytes
scalar NetK.rte[24].queue[4] drop:sum 0
attr interpolationmode none
attr title "dropped packet byte length, sum"
attr unit bytes
statistic NetK.rte[24].queue[5] "drop count"
field count 0
field mean nan
field stddev nan
field min nan
field max nan
field sum 0
field sqrsum 0
bin	-inf	0
bin	0	0
bin	1	0
scalar NetK.rte[24].queue[5] rxBytes:count 591
attr interpolationmode none
attr title "received packet byte length, count"
attr unit bytes
scalar NetK.rte[24].queue[5] rxBytes:sum 886500
attr interpolationmode none
attr title "received packet byte length, sum"
attr unit bytes
statistic NetK.rte[24].queue[5] rxBytes:histogram
field count 591
field mean 1500
field stddev 0
field min 1500
field max 1500
field sum 886500
field sqrsum 1329750000
attr interpolationmode none
attr title "received packet byte length, histogram"
attr unit bytes
bin	-inf	0
bin	1499	0
bin	1500	591
bin	1501	0
scalar NetK.rte[24].queue[5] txBytes:count 589
attr interpolationmode none
attr title "transmitting packet byte length, count"
attr unit bytes
scalar NetK.rte[24].queue[5] txBytes:sum 883500
attr interpolationmode none
attr title "transmitting packet byte length, sum"
attr unit bytes
statistic NetK.rte[24].queue[5] txBytes:histogram
field count 589
field mean 1500
field stddev 0
field min 1500
field max 1500
field sum 883500
field sqrsum 1325250000
attr interpolationmode none
attr title "transmitting packet byte length, histogram"
attr unit bytes
bin	-inf	0
bin	1499	0
bin	1500	589
bin	1501	0
scalar NetK.rte[24].queue[5] busy:timeavg 0.0023554111472132
attr interpolationmode sample-hold
attr title "server busy state, timeavg"
scalar NetK.rte[24].queue[5] qlen:timeavg 0
attr interpolationmode sample-hold
attr title "queue length, timeavg"
scalar NetK.rte[24].queue[5] qlen:max 0
attr interpolationmode sample-hold
attr title "queue length, max"
scalar NetK.rte[24].queue[5] drop:count 0
attr interpolationmode none
attr title "dropped packet byte length, count"
attr unit bytes
scalar NetK.rte[24].queue[5] drop:sum 0
attr interpolationmode none
attr title "dropped packet byte length, sum"
attr unit bytes
scalar NetK.terminal[0].app numSent 4034
scalar NetK.terminal[0].app numReceived 3176
scalar NetK.terminal[0].app endToEndDelay:mean 0.0010605422238665
attr interpolationmode none
attr title "end-to-end delay of arrived packets, mean"
attr unit s
scalar NetK.terminal[0].app endToEndDelay:max 0.088588198
attr interpolationmode none
attr title "end-to-end delay of arrived packets, max"
attr unit s
scalar NetK.terminal[0].app endToEndDelay:count 3176
attr interpolationmode none
attr title "end-to-end delay of arrived packets, count"
attr unit s
scalar NetK.terminal[1].app numSent 3907
scalar NetK.terminal[1].app numReceived 2948
scalar NetK.terminal[1].app endToEndDelay:mean 0.0012482870230665
attr interpolationmode none
attr title "end-to-end delay of arrived packets, mean"
attr unit s
scalar NetK.terminal[1].app endToEndDelay:max 0.208194246
attr interpolationmode none
attr title "end-to-end delay of arrived packets, max"
attr unit s
scalar NetK.terminal[1].app endToEndDelay:count 2948
attr interpolationmode none
attr title "end-to-end delay of arrived packets, count"
attr unit s

