version 2
run NetK-0-20200909-15:00:06-17596
attr configname NetK
attr datetime 20200909-15:00:06
attr experiment NetK
attr inifile omnetpp.ini
attr iterationvars "$seed=1, $alpha=5, $mVar=5, $LB=true, $LinkPre=true"
attr iterationvarsf seed=1,alpha=5,mVar=5,LB=true,LinkPre=true-
attr measurement "$seed=1, $alpha=5, $mVar=5, $LB=true, $LinkPre=true"
attr network networks.NetK
attr processid 17596
attr repetition 0
attr replication #0
attr resultdir results
attr runnumber 0
attr seedset 1
itervar LB true
itervar LinkPre true
itervar alpha 5
itervar mVar 5
itervar seed 1
param **.num_of_hosts 25
param **.num_of_terminals 2
param **.maxTerminalNumber 10
param *.rte[*].app.hasApp false
param *.terminal[*].radius 1500m
param **.maxX 10000m
param **.maxY 10000m
param **.minX 0m
param **.minY 0m
param *.rte[*].mobility.typename "\"TurtleMobility\""
param *.rte[*].mobilityType "\"TurtleMobility\""
param *.rte[0].mobility.turtleScript "xmldoc(\"mobility.xml\", \"movements//movement[@id='0']\")"
param *.rte[1].mobility.turtleScript "xmldoc(\"mobility.xml\", \"movements//movement[@id='1']\")"
param *.rte[2].mobility.turtleScript "xmldoc(\"mobility.xml\", \"movements//movement[@id='2']\")"
param *.rte[3].mobility.turtleScript "xmldoc(\"mobility.xml\", \"movements//movement[@id='3']\")"
param *.rte[4].mobility.turtleScript "xmldoc(\"mobility.xml\", \"movements//movement[@id='4']\")"
param *.rte[5].mobility.turtleScript "xmldoc(\"mobility.xml\", \"movements//movement[@id='5']\")"
param *.rte[6].mobility.turtleScript "xmldoc(\"mobility.xml\", \"movements//movement[@id='6']\")"
param *.rte[7].mobility.turtleScript "xmldoc(\"mobility.xml\", \"movements//movement[@id='7']\")"
param *.rte[8].mobility.turtleScript "xmldoc(\"mobility.xml\", \"movements//movement[@id='8']\")"
param *.rte[9].mobility.turtleScript "xmldoc(\"mobility.xml\", \"movements//movement[@id='9']\")"
param *.rte[10].mobility.turtleScript "xmldoc(\"mobility.xml\", \"movements//movement[@id='10']\")"
param *.rte[11].mobility.turtleScript "xmldoc(\"mobility.xml\", \"movements//movement[@id='11']\")"
param *.rte[12].mobility.turtleScript "xmldoc(\"mobility.xml\", \"movements//movement[@id='12']\")"
param *.rte[13].mobility.turtleScript "xmldoc(\"mobility.xml\", \"movements//movement[@id='13']\")"
param *.rte[14].mobility.turtleScript "xmldoc(\"mobility.xml\", \"movements//movement[@id='14']\")"
param *.rte[15].mobility.turtleScript "xmldoc(\"mobility.xml\", \"movements//movement[@id='15']\")"
param *.rte[16].mobility.turtleScript "xmldoc(\"mobility.xml\", \"movements//movement[@id='16']\")"
param *.rte[17].mobility.turtleScript "xmldoc(\"mobility.xml\", \"movements//movement[@id='17']\")"
param *.rte[18].mobility.turtleScript "xmldoc(\"mobility.xml\", \"movements//movement[@id='18']\")"
param *.rte[19].mobility.turtleScript "xmldoc(\"mobility.xml\", \"movements//movement[@id='19']\")"
param *.rte[20].mobility.turtleScript "xmldoc(\"mobility.xml\", \"movements//movement[@id='20']\")"
param *.rte[21].mobility.turtleScript "xmldoc(\"mobility.xml\", \"movements//movement[@id='21']\")"
param *.rte[22].mobility.turtleScript "xmldoc(\"mobility.xml\", \"movements//movement[@id='22']\")"
param *.rte[23].mobility.turtleScript "xmldoc(\"mobility.xml\", \"movements//movement[@id='23']\")"
param *.rte[24].mobility.turtleScript "xmldoc(\"mobility.xml\", \"movements//movement[@id='24']\")"
param *.terminal[*].mobility.typename "\"StationaryMobility\""
param *.terminal[*].mobilityType "\"StationaryMobility\""
param **.alpha 5
param **.m_var 5
param **.changeRate 25s
param **.rte[*].app.packetLength "1500 bytes"
param **.rte[*].app.sendIaTime exponential(150ms)
param **.rte[*].app.burst_next_event exponential(25s)
param **.rte[*].app.burst_next_interval exponential(40ms)
param **.rte[*].app.burst_size "intuniform (80,320)"
param **.rte[*].frameCapacity 7000
param **.datarate 5Mbps
param **.load_balance_mode true
param **.load_balance_link_prediction true
param **.load_threshold 85
param **.rte[*].appType "\"App\""
param **.rte[*].mobility.element[0].typename "\"StaticGridMobility\""
param **.rte[*].mobility.element[0].subjectModule "\"^\""
param **.rte[*].mobility.updateDisplayString false
param **.rte[*].mobility.element[*].updateDisplayString false
param **.rte[*].mobility.element[0].separationX 50m
param **.rte[*].mobility.element[0].separationY 50m
param **.rte[*].mobility.element[0].constraintAreaMinX 0m
param **.rte[*].mobility.element[0].constraintAreaMinY 0m
param **.rte[*].mobility.element[0].constraintAreaMinZ 0m
param **.rte[*].mobility.element[0].constraintAreaMaxX 1500m
param **.rte[*].mobility.element[0].constraintAreaMaxY 1000m
param **.rte[*].mobility.element[0].constraintAreaMaxZ 0m

scalar NetK.rte[0].grid x 1000
scalar NetK.rte[0].grid y 1000
scalar NetK.rte[0].grid z 0
scalar NetK.rte[1].grid x 3000
scalar NetK.rte[1].grid y 1000
scalar NetK.rte[1].grid z 0
scalar NetK.rte[2].grid x 5000
scalar NetK.rte[2].grid y 1000
scalar NetK.rte[2].grid z 0
scalar NetK.rte[3].grid x 7000
scalar NetK.rte[3].grid y 1000
scalar NetK.rte[3].grid z 0
scalar NetK.rte[4].grid x 9000
scalar NetK.rte[4].grid y 1000
scalar NetK.rte[4].grid z 0
scalar NetK.rte[5].grid x 1000
scalar NetK.rte[5].grid y 3000
scalar NetK.rte[5].grid z 0
scalar NetK.rte[6].grid x 3000
scalar NetK.rte[6].grid y 3000
scalar NetK.rte[6].grid z 0
scalar NetK.rte[7].grid x 5000
scalar NetK.rte[7].grid y 3000
scalar NetK.rte[7].grid z 0
scalar NetK.rte[8].grid x 7000
scalar NetK.rte[8].grid y 3000
scalar NetK.rte[8].grid z 0
scalar NetK.rte[9].grid x 9000
scalar NetK.rte[9].grid y 3000
scalar NetK.rte[9].grid z 0
scalar NetK.rte[10].grid x 1000
scalar NetK.rte[10].grid y 5000
scalar NetK.rte[10].grid z 0
scalar NetK.rte[11].grid x 3000
scalar NetK.rte[11].grid y 5000
scalar NetK.rte[11].grid z 0
scalar NetK.rte[12].grid x 5000
scalar NetK.rte[12].grid y 5000
scalar NetK.rte[12].grid z 0
scalar NetK.rte[13].grid x 7000
scalar NetK.rte[13].grid y 5000
scalar NetK.rte[13].grid z 0
scalar NetK.rte[14].grid x 9000
scalar NetK.rte[14].grid y 5000
scalar NetK.rte[14].grid z 0
scalar NetK.rte[15].grid x 1000
scalar NetK.rte[15].grid y 7000
scalar NetK.rte[15].grid z 0
scalar NetK.rte[16].grid x 3000
scalar NetK.rte[16].grid y 7000
scalar NetK.rte[16].grid z 0
scalar NetK.rte[17].grid x 5000
scalar NetK.rte[17].grid y 7000
scalar NetK.rte[17].grid z 0
scalar NetK.rte[18].grid x 7000
scalar NetK.rte[18].grid y 7000
scalar NetK.rte[18].grid z 0
scalar NetK.rte[19].grid x 9000
scalar NetK.rte[19].grid y 7000
scalar NetK.rte[19].grid z 0
scalar NetK.rte[20].grid x 1000
scalar NetK.rte[20].grid y 9000
scalar NetK.rte[20].grid z 0
scalar NetK.rte[21].grid x 3000
scalar NetK.rte[21].grid y 9000
scalar NetK.rte[21].grid z 0
scalar NetK.rte[22].grid x 5000
scalar NetK.rte[22].grid y 9000
scalar NetK.rte[22].grid z 0
scalar NetK.rte[23].grid x 7000
scalar NetK.rte[23].grid y 9000
scalar NetK.rte[23].grid z 0
scalar NetK.rte[24].grid x 9000
scalar NetK.rte[24].grid y 9000
scalar NetK.rte[24].grid z 0
scalar NetK.rte[0].app #sent 0
scalar NetK.rte[0].app #received 0
statistic NetK.rte[0].app "hop count"
field count 0
field mean nan
field stddev nan
field min nan
field max nan
field sum 0
field sqrsum 0
bin	-inf	0
bin	0	0
bin	1	0
scalar NetK.rte[0].app hopCount:mean nan
attr interpolationmode none
attr title "hop count of arrived packets, mean"
scalar NetK.rte[0].app hopCount:max nan
attr interpolationmode none
attr title "hop count of arrived packets, max"
scalar NetK.rte[0].app hopCount:count 0
attr interpolationmode none
attr title "hop count of arrived packets, count"
statistic NetK.rte[0].app hopCount:histogram
field count 0
field mean nan
field stddev nan
field min nan
field max nan
field sum 0
field sqrsum 0
attr interpolationmode none
attr title "hop count of arrived packets, histogram"
bin	-inf	0
bin	0	0
bin	1	0
scalar NetK.rte[0].app endToEndDelay:mean nan
attr interpolationmode none
attr title "end-to-end delay of arrived packets, mean"
attr unit s
scalar NetK.rte[0].app endToEndDelay:max nan
attr interpolationmode none
attr title "end-to-end delay of arrived packets, max"
attr unit s
scalar NetK.rte[0].app endToEndDelay:count 0
attr interpolationmode none
attr title "end-to-end delay of arrived packets, count"
attr unit s
statistic NetK.rte[0].routing TopoLinkCounter:histogram
field count 12
field mean 102.25
field stddev 8.1700673191841
field min 86
field max 115
field sum 1227
field sqrsum 126195
attr interpolationmode none
attr title "Number of links enabled in Topology, histogram"
bin	-inf	0
bin	78	0
bin	79	0
bin	80	0
bin	81	0
bin	82	0
bin	83	0
bin	84	0
bin	85	0
bin	86	1
bin	87	0
bin	88	0
bin	89	0
bin	90	0
bin	91	0
bin	92	0
bin	93	0
bin	94	1
bin	95	1
bin	96	0
bin	97	0
bin	98	1
bin	99	1
bin	100	0
bin	101	0
bin	102	1
bin	103	0
bin	104	0
bin	105	1
bin	106	0
bin	107	2
bin	108	0
bin	109	1
bin	110	1
bin	111	0
bin	112	0
bin	113	0
bin	114	0
bin	115	1
bin	116	0
bin	117	0
bin	118	0
bin	119	0
bin	120	0
bin	121	0
bin	122	0
bin	123	0
scalar NetK.rte[0].routing TopoLinkCounter:mean 102.25
attr interpolationmode none
attr title "Number of links enabled in Topology, mean"
scalar NetK.rte[0].routing TopoLinkCounter:max 115
attr interpolationmode none
attr title "Number of links enabled in Topology, max"
scalar NetK.rte[0].routing TopoLinkCounter:count 12
attr interpolationmode none
attr title "Number of links enabled in Topology, count"
statistic NetK.rte[0].routing outputIf:histogram
field count 0
field mean nan
field stddev nan
field min nan
field max nan
field sum 0
field sqrsum 0
attr interpolationmode none
attr title "output interface for each routed packet, histogram"
bin	-inf	0
bin	0	0
bin	1	0
scalar NetK.rte[0].routing drop:count 0
attr interpolationmode none
attr title "dropped packet byte length, count"
attr unit bytes
scalar NetK.rte[0].routing drop:sum 0
attr interpolationmode none
attr title "dropped packet byte length, sum"
attr unit bytes
statistic NetK.rte[0].routing hopCount:histogram
field count 0
field mean nan
field stddev nan
field min nan
field max nan
field sum 0
field sqrsum 0
attr interpolationmode none
attr title "count number of hops for packet, histogram"
bin	-inf	0
bin	0	0
bin	1	0
scalar NetK.rte[0].routing hopCount:mean nan
attr interpolationmode none
attr title "count number of hops for packet, mean"
scalar NetK.rte[0].routing hopCount:max nan
attr interpolationmode none
attr title "count number of hops for packet, max"
scalar NetK.rte[0].routing hopCount:count 0
attr interpolationmode none
attr title "count number of hops for packet, count"
statistic NetK.rte[0].queue[0] "drop count"
field count 0
field mean nan
field stddev nan
field min nan
field max nan
field sum 0
field sqrsum 0
bin	-inf	0
bin	0	0
bin	1	0
scalar NetK.rte[0].queue[0] rxBytes:count 8
attr interpolationmode none
attr title "received packet byte length, count"
attr unit bytes
scalar NetK.rte[0].queue[0] rxBytes:sum 12000
attr interpolationmode none
attr title "received packet byte length, sum"
attr unit bytes
statistic NetK.rte[0].queue[0] rxBytes:histogram
field count 8
field mean 1500
field stddev 0
field min 1500
field max 1500
field sum 12000
field sqrsum 18000000
attr interpolationmode none
attr title "received packet byte length, histogram"
attr unit bytes
bin	-inf	0
bin	1499	0
bin	1500	8
bin	1501	0
scalar NetK.rte[0].queue[0] txBytes:count 40
attr interpolationmode none
attr title "transmitting packet byte length, count"
attr unit bytes
scalar NetK.rte[0].queue[0] txBytes:sum 60000
attr interpolationmode none
attr title "transmitting packet byte length, sum"
attr unit bytes
statistic NetK.rte[0].queue[0] txBytes:histogram
field count 40
field mean 1500
field stddev 0
field min 1500
field max 1500
field sum 60000
field sqrsum 90000000
attr interpolationmode none
attr title "transmitting packet byte length, histogram"
attr unit bytes
bin	-inf	0
bin	1499	0
bin	1500	40
bin	1501	0
scalar NetK.rte[0].queue[0] busy:timeavg 0.00032703270815017
attr interpolationmode sample-hold
attr title "server busy state, timeavg"
scalar NetK.rte[0].queue[0] qlen:timeavg 0
attr interpolationmode sample-hold
attr title "queue length, timeavg"
scalar NetK.rte[0].queue[0] qlen:max 0
attr interpolationmode sample-hold
attr title "queue length, max"
scalar NetK.rte[0].queue[0] drop:count 0
attr interpolationmode none
attr title "dropped packet byte length, count"
attr unit bytes
scalar NetK.rte[0].queue[0] drop:sum 0
attr interpolationmode none
attr title "dropped packet byte length, sum"
attr unit bytes
statistic NetK.rte[0].queue[1] "drop count"
field count 0
field mean nan
field stddev nan
field min nan
field max nan
field sum 0
field sqrsum 0
bin	-inf	0
bin	0	0
bin	1	0
scalar NetK.rte[0].queue[1] rxBytes:count 29
attr interpolationmode none
attr title "received packet byte length, count"
attr unit bytes
scalar NetK.rte[0].queue[1] rxBytes:sum 43500
attr interpolationmode none
attr title "received packet byte length, sum"
attr unit bytes
statistic NetK.rte[0].queue[1] rxBytes:histogram
field count 29
field mean 1500
field stddev 0
field min 1500
field max 1500
field sum 43500
field sqrsum 65250000
attr interpolationmode none
attr title "received packet byte length, histogram"
attr unit bytes
bin	-inf	0
bin	1499	0
bin	1500	29
bin	1501	0
scalar NetK.rte[0].queue[1] txBytes:count 7
attr interpolationmode none
attr title "transmitting packet byte length, count"
attr unit bytes
scalar NetK.rte[0].queue[1] txBytes:sum 10500
attr interpolationmode none
attr title "transmitting packet byte length, sum"
attr unit bytes
statistic NetK.rte[0].queue[1] txBytes:histogram
field count 7
field mean 1500
field stddev 0
field min 1500
field max 1500
field sum 10500
field sqrsum 15750000
attr interpolationmode none
attr title "transmitting packet byte length, histogram"
attr unit bytes
bin	-inf	0
bin	1499	0
bin	1500	7
bin	1501	0
scalar NetK.rte[0].queue[1] busy:timeavg 5.723072392628e-005
attr interpolationmode sample-hold
attr title "server busy state, timeavg"
scalar NetK.rte[0].queue[1] qlen:timeavg 0
attr interpolationmode sample-hold
attr title "queue length, timeavg"
scalar NetK.rte[0].queue[1] qlen:max 0
attr interpolationmode sample-hold
attr title "queue length, max"
scalar NetK.rte[0].queue[1] drop:count 0
attr interpolationmode none
attr title "dropped packet byte length, count"
attr unit bytes
scalar NetK.rte[0].queue[1] drop:sum 0
attr interpolationmode none
attr title "dropped packet byte length, sum"
attr unit bytes
statistic NetK.rte[0].queue[2] "drop count"
field count 0
field mean nan
field stddev nan
field min nan
field max nan
field sum 0
field sqrsum 0
bin	-inf	0
bin	0	0
bin	1	0
scalar NetK.rte[0].queue[2] rxBytes:count 12
attr interpolationmode none
attr title "received packet byte length, count"
attr unit bytes
scalar NetK.rte[0].queue[2] rxBytes:sum 18000
attr interpolationmode none
attr title "received packet byte length, sum"
attr unit bytes
statistic NetK.rte[0].queue[2] rxBytes:histogram
field count 12
field mean 1500
field stddev 0
field min 1500
field max 1500
field sum 18000
field sqrsum 27000000
attr interpolationmode none
attr title "received packet byte length, histogram"
attr unit bytes
bin	-inf	0
bin	1499	0
bin	1500	12
bin	1501	0
scalar NetK.rte[0].queue[2] txBytes:count 17
attr interpolationmode none
attr title "transmitting packet byte length, count"
attr unit bytes
scalar NetK.rte[0].queue[2] txBytes:sum 25500
attr interpolationmode none
attr title "transmitting packet byte length, sum"
attr unit bytes
statistic NetK.rte[0].queue[2] txBytes:histogram
field count 17
field mean 1500
field stddev 0
field min 1500
field max 1500
field sum 25500
field sqrsum 38250000
attr interpolationmode none
attr title "transmitting packet byte length, histogram"
attr unit bytes
bin	-inf	0
bin	1499	0
bin	1500	17
bin	1501	0
scalar NetK.rte[0].queue[2] busy:timeavg 0.00013898890096382
attr interpolationmode sample-hold
attr title "server busy state, timeavg"
scalar NetK.rte[0].queue[2] qlen:timeavg 0
attr interpolationmode sample-hold
attr title "queue length, timeavg"
scalar NetK.rte[0].queue[2] qlen:max 0
attr interpolationmode sample-hold
attr title "queue length, max"
scalar NetK.rte[0].queue[2] drop:count 0
attr interpolationmode none
attr title "dropped packet byte length, count"
attr unit bytes
scalar NetK.rte[0].queue[2] drop:sum 0
attr interpolationmode none
attr title "dropped packet byte length, sum"
attr unit bytes
statistic NetK.rte[0].queue[3] "drop count"
field count 0
field mean nan
field stddev nan
field min nan
field max nan
field sum 0
field sqrsum 0
bin	-inf	0
bin	0	0
bin	1	0
scalar NetK.rte[0].queue[3] rxBytes:count 6
attr interpolationmode none
attr title "received packet byte length, count"
attr unit bytes
scalar NetK.rte[0].queue[3] rxBytes:sum 9000
attr interpolationmode none
attr title "received packet byte length, sum"
attr unit bytes
statistic NetK.rte[0].queue[3] rxBytes:histogram
field count 6
field mean 1500
field stddev 0
field min 1500
field max 1500
field sum 9000
field sqrsum 13500000
attr interpolationmode none
attr title "received packet byte length, histogram"
attr unit bytes
bin	-inf	0
bin	1499	0
bin	1500	6
bin	1501	0
scalar NetK.rte[0].queue[3] txBytes:count 30
attr interpolationmode none
attr title "transmitting packet byte length, count"
attr unit bytes
scalar NetK.rte[0].queue[3] txBytes:sum 45000
attr interpolationmode none
attr title "transmitting packet byte length, sum"
attr unit bytes
statistic NetK.rte[0].queue[3] txBytes:histogram
field count 30
field mean 1500
field stddev 0
field min 1500
field max 1500
field sum 45000
field sqrsum 67500000
attr interpolationmode none
attr title "transmitting packet byte length, histogram"
attr unit bytes
bin	-inf	0
bin	1499	0
bin	1500	30
bin	1501	0
scalar NetK.rte[0].queue[3] busy:timeavg 0.00024527453111263
attr interpolationmode sample-hold
attr title "server busy state, timeavg"
scalar NetK.rte[0].queue[3] qlen:timeavg 0
attr interpolationmode sample-hold
attr title "queue length, timeavg"
scalar NetK.rte[0].queue[3] qlen:max 0
attr interpolationmode sample-hold
attr title "queue length, max"
scalar NetK.rte[0].queue[3] drop:count 0
attr interpolationmode none
attr title "dropped packet byte length, count"
attr unit bytes
scalar NetK.rte[0].queue[3] drop:sum 0
attr interpolationmode none
attr title "dropped packet byte length, sum"
attr unit bytes
statistic NetK.rte[0].queue[4] "drop count"
field count 0
field mean nan
field stddev nan
field min nan
field max nan
field sum 0
field sqrsum 0
bin	-inf	0
bin	0	0
bin	1	0
scalar NetK.rte[0].queue[4] rxBytes:count 45
attr interpolationmode none
attr title "received packet byte length, count"
attr unit bytes
scalar NetK.rte[0].queue[4] rxBytes:sum 67500
attr interpolationmode none
attr title "received packet byte length, sum"
attr unit bytes
statistic NetK.rte[0].queue[4] rxBytes:histogram
field count 45
field mean 1500
field stddev 0
field min 1500
field max 1500
field sum 67500
field sqrsum 101250000
attr interpolationmode none
attr title "received packet byte length, histogram"
attr unit bytes
bin	-inf	0
bin	1499	0
bin	1500	45
bin	1501	0
scalar NetK.rte[0].queue[4] txBytes:count 7
attr interpolationmode none
attr title "transmitting packet byte length, count"
attr unit bytes
scalar NetK.rte[0].queue[4] txBytes:sum 10500
attr interpolationmode none
attr title "transmitting packet byte length, sum"
attr unit bytes
statistic NetK.rte[0].queue[4] txBytes:histogram
field count 7
field mean 1500
field stddev 0
field min 1500
field max 1500
field sum 10500
field sqrsum 15750000
attr interpolationmode none
attr title "transmitting packet byte length, histogram"
attr unit bytes
bin	-inf	0
bin	1499	0
bin	1500	7
bin	1501	0
scalar NetK.rte[0].queue[4] busy:timeavg 5.723072392628e-005
attr interpolationmode sample-hold
attr title "server busy state, timeavg"
scalar NetK.rte[0].queue[4] qlen:timeavg 0
attr interpolationmode sample-hold
attr title "queue length, timeavg"
scalar NetK.rte[0].queue[4] qlen:max 0
attr interpolationmode sample-hold
attr title "queue length, max"
scalar NetK.rte[0].queue[4] drop:count 0
attr interpolationmode none
attr title "dropped packet byte length, count"
attr unit bytes
scalar NetK.rte[0].queue[4] drop:sum 0
attr interpolationmode none
attr title "dropped packet byte length, sum"
attr unit bytes
statistic NetK.rte[0].queue[5] "drop count"
field count 0
field mean nan
field stddev nan
field min nan
field max nan
field sum 0
field sqrsum 0
bin	-inf	0
bin	0	0
bin	1	0
scalar NetK.rte[0].queue[5] rxBytes:count 19
attr interpolationmode none
attr title "received packet byte length, count"
attr unit bytes
scalar NetK.rte[0].queue[5] rxBytes:sum 28500
attr interpolationmode none
attr title "received packet byte length, sum"
attr unit bytes
statistic NetK.rte[0].queue[5] rxBytes:histogram
field count 19
field mean 1500
field stddev 0
field min 1500
field max 1500
field sum 28500
field sqrsum 42750000
attr interpolationmode none
attr title "received packet byte length, histogram"
attr unit bytes
bin	-inf	0
bin	1499	0
bin	1500	19
bin	1501	0
scalar NetK.rte[0].queue[5] txBytes:count 42
attr interpolationmode none
attr title "transmitting packet byte length, count"
attr unit bytes
scalar NetK.rte[0].queue[5] txBytes:sum 63000
attr interpolationmode none
attr title "transmitting packet byte length, sum"
attr unit bytes
statistic NetK.rte[0].queue[5] txBytes:histogram
field count 42
field mean 1500
field stddev 0
field min 1500
field max 1500
field sum 63000
field sqrsum 94500000
attr interpolationmode none
attr title "transmitting packet byte length, histogram"
attr unit bytes
bin	-inf	0
bin	1499	0
bin	1500	42
bin	1501	0
scalar NetK.rte[0].queue[5] busy:timeavg 0.00034338434355768
attr interpolationmode sample-hold
attr title "server busy state, timeavg"
scalar NetK.rte[0].queue[5] qlen:timeavg 0
attr interpolationmode sample-hold
attr title "queue length, timeavg"
scalar NetK.rte[0].queue[5] qlen:max 0
attr interpolationmode sample-hold
attr title "queue length, max"
scalar NetK.rte[0].queue[5] drop:count 0
attr interpolationmode none
attr title "dropped packet byte length, count"
attr unit bytes
scalar NetK.rte[0].queue[5] drop:sum 0
attr interpolationmode none
attr title "dropped packet byte length, sum"
attr unit bytes
scalar NetK.rte[1].app #sent -1.004593322877e+308
scalar NetK.rte[1].app #received -1.004592466064e+308
statistic NetK.rte[1].app "hop count"
field count 0
field mean nan
field stddev nan
field min nan
field max nan
field sum 0
field sqrsum 0
bin	-inf	0
bin	0	0
bin	1	0
scalar NetK.rte[1].app hopCount:mean nan
attr interpolationmode none
attr title "hop count of arrived packets, mean"
scalar NetK.rte[1].app hopCount:max nan
attr interpolationmode none
attr title "hop count of arrived packets, max"
scalar NetK.rte[1].app hopCount:count 0
attr interpolationmode none
attr title "hop count of arrived packets, count"
statistic NetK.rte[1].app hopCount:histogram
field count 0
field mean nan
field stddev nan
field min nan
field max nan
field sum 0
field sqrsum 0
attr interpolationmode none
attr title "hop count of arrived packets, histogram"
bin	-inf	0
bin	0	0
bin	1	0
scalar NetK.rte[1].app endToEndDelay:mean nan
attr interpolationmode none
attr title "end-to-end delay of arrived packets, mean"
attr unit s
scalar NetK.rte[1].app endToEndDelay:max nan
attr interpolationmode none
attr title "end-to-end delay of arrived packets, max"
attr unit s
scalar NetK.rte[1].app endToEndDelay:count 0
attr interpolationmode none
attr title "end-to-end delay of arrived packets, count"
attr unit s
statistic NetK.rte[1].routing TopoLinkCounter:histogram
field count 0
field mean nan
field stddev nan
field min nan
field max nan
field sum 0
field sqrsum 0
attr interpolationmode none
attr title "Number of links enabled in Topology, histogram"
bin	-inf	0
bin	0	0
bin	1	0
scalar NetK.rte[1].routing TopoLinkCounter:mean nan
attr interpolationmode none
attr title "Number of links enabled in Topology, mean"
scalar NetK.rte[1].routing TopoLinkCounter:max nan
attr interpolationmode none
attr title "Number of links enabled in Topology, max"
scalar NetK.rte[1].routing TopoLinkCounter:count 0
attr interpolationmode none
attr title "Number of links enabled in Topology, count"
statistic NetK.rte[1].routing outputIf:histogram
field count 0
field mean nan
field stddev nan
field min nan
field max nan
field sum 0
field sqrsum 0
attr interpolationmode none
attr title "output interface for each routed packet, histogram"
bin	-inf	0
bin	0	0
bin	1	0
scalar NetK.rte[1].routing drop:count 0
attr interpolationmode none
attr title "dropped packet byte length, count"
attr unit bytes
scalar NetK.rte[1].routing drop:sum 0
attr interpolationmode none
attr title "dropped packet byte length, sum"
attr unit bytes
statistic NetK.rte[1].routing hopCount:histogram
field count 0
field mean nan
field stddev nan
field min nan
field max nan
field sum 0
field sqrsum 0
attr interpolationmode none
attr title "count number of hops for packet, histogram"
bin	-inf	0
bin	0	0
bin	1	0
scalar NetK.rte[1].routing hopCount:mean nan
attr interpolationmode none
attr title "count number of hops for packet, mean"
scalar NetK.rte[1].routing hopCount:max nan
attr interpolationmode none
attr title "count number of hops for packet, max"
scalar NetK.rte[1].routing hopCount:count 0
attr interpolationmode none
attr title "count number of hops for packet, count"
statistic NetK.rte[1].queue[0] "drop count"
field count 0
field mean nan
field stddev nan
field min nan
field max nan
field sum 0
field sqrsum 0
bin	-inf	0
bin	0	0
bin	1	0
scalar NetK.rte[1].queue[0] rxBytes:count 40
attr interpolationmode none
attr title "received packet byte length, count"
attr unit bytes
scalar NetK.rte[1].queue[0] rxBytes:sum 60000
attr interpolationmode none
attr title "received packet byte length, sum"
attr unit bytes
statistic NetK.rte[1].queue[0] rxBytes:histogram
field count 40
field mean 1500
field stddev 0
field min 1500
field max 1500
field sum 60000
field sqrsum 90000000
attr interpolationmode none
attr title "received packet byte length, histogram"
attr unit bytes
bin	-inf	0
bin	1499	0
bin	1500	40
bin	1501	0
scalar NetK.rte[1].queue[0] txBytes:count 8
attr interpolationmode none
attr title "transmitting packet byte length, count"
attr unit bytes
scalar NetK.rte[1].queue[0] txBytes:sum 12000
attr interpolationmode none
attr title "transmitting packet byte length, sum"
attr unit bytes
statistic NetK.rte[1].queue[0] txBytes:histogram
field count 8
field mean 1500
field stddev 0
field min 1500
field max 1500
field sum 12000
field sqrsum 18000000
attr interpolationmode none
attr title "transmitting packet byte length, histogram"
attr unit bytes
bin	-inf	0
bin	1499	0
bin	1500	8
bin	1501	0
scalar NetK.rte[1].queue[0] busy:timeavg 6.5406541630035e-005
attr interpolationmode sample-hold
attr title "server busy state, timeavg"
scalar NetK.rte[1].queue[0] qlen:timeavg 0
attr interpolationmode sample-hold
attr title "queue length, timeavg"
scalar NetK.rte[1].queue[0] qlen:max 0
attr interpolationmode sample-hold
attr title "queue length, max"
scalar NetK.rte[1].queue[0] drop:count 0
attr interpolationmode none
attr title "dropped packet byte length, count"
attr unit bytes
scalar NetK.rte[1].queue[0] drop:sum 0
attr interpolationmode none
attr title "dropped packet byte length, sum"
attr unit bytes
statistic NetK.rte[1].queue[1] "drop count"
field count 0
field mean nan
field stddev nan
field min nan
field max nan
field sum 0
field sqrsum 0
bin	-inf	0
bin	0	0
bin	1	0
scalar NetK.rte[1].queue[1] rxBytes:count 17
attr interpolationmode none
attr title "received packet byte length, count"
attr unit bytes
scalar NetK.rte[1].queue[1] rxBytes:sum 25500
attr interpolationmode none
attr title "received packet byte length, sum"
attr unit bytes
statistic NetK.rte[1].queue[1] rxBytes:histogram
field count 17
field mean 1500
field stddev 0
field min 1500
field max 1500
field sum 25500
field sqrsum 38250000
attr interpolationmode none
attr title "received packet byte length, histogram"
attr unit bytes
bin	-inf	0
bin	1499	0
bin	1500	17
bin	1501	0
scalar NetK.rte[1].queue[1] txBytes:count 10
attr interpolationmode none
attr title "transmitting packet byte length, count"
attr unit bytes
scalar NetK.rte[1].queue[1] txBytes:sum 15000
attr interpolationmode none
attr title "transmitting packet byte length, sum"
attr unit bytes
statistic NetK.rte[1].queue[1] txBytes:histogram
field count 10
field mean 1500
field stddev 0
field min 1500
field max 1500
field sum 15000
field sqrsum 22500000
attr interpolationmode none
attr title "transmitting packet byte length, histogram"
attr unit bytes
bin	-inf	0
bin	1499	0
bin	1500	10
bin	1501	0
scalar NetK.rte[1].queue[1] busy:timeavg 8.1758177037543e-005
attr interpolationmode sample-hold
attr title "server busy state, timeavg"
scalar NetK.rte[1].queue[1] qlen:timeavg 0
attr interpolationmode sample-hold
attr title "queue length, timeavg"
scalar NetK.rte[1].queue[1] qlen:max 0
attr interpolationmode sample-hold
attr title "queue length, max"
scalar NetK.rte[1].queue[1] drop:count 0
attr interpolationmode none
attr title "dropped packet byte length, count"
attr unit bytes
scalar NetK.rte[1].queue[1] drop:sum 0
attr interpolationmode none
attr title "dropped packet byte length, sum"
attr unit bytes
statistic NetK.rte[1].queue[2] "drop count"
field count 0
field mean nan
field stddev nan
field min nan
field max nan
field sum 0
field sqrsum 0
bin	-inf	0
bin	0	0
bin	1	0
scalar NetK.rte[1].queue[2] rxBytes:count 33
attr interpolationmode none
attr title "received packet byte length, count"
attr unit bytes
scalar NetK.rte[1].queue[2] rxBytes:sum 49500
attr interpolationmode none
attr title "received packet byte length, sum"
attr unit bytes
statistic NetK.rte[1].queue[2] rxBytes:histogram
field count 33
field mean 1500
field stddev 0
field min 1500
field max 1500
field sum 49500
field sqrsum 74250000
attr interpolationmode none
attr title "received packet byte length, histogram"
attr unit bytes
bin	-inf	0
bin	1499	0
bin	1500	33
bin	1501	0
scalar NetK.rte[1].queue[2] txBytes:count 65
attr interpolationmode none
attr title "transmitting packet byte length, count"
attr unit bytes
scalar NetK.rte[1].queue[2] txBytes:sum 97500
attr interpolationmode none
attr title "transmitting packet byte length, sum"
attr unit bytes
statistic NetK.rte[1].queue[2] txBytes:histogram
field count 65
field mean 1500
field stddev 0
field min 1500
field max 1500
field sum 97500
field sqrsum 146250000
attr interpolationmode none
attr title "transmitting packet byte length, histogram"
attr unit bytes
bin	-inf	0
bin	1499	0
bin	1500	65
bin	1501	0
scalar NetK.rte[1].queue[2] busy:timeavg 0.00053142815074403
attr interpolationmode sample-hold
attr title "server busy state, timeavg"
scalar NetK.rte[1].queue[2] qlen:timeavg 0
attr interpolationmode sample-hold
attr title "queue length, timeavg"
scalar NetK.rte[1].queue[2] qlen:max 0
attr interpolationmode sample-hold
attr title "queue length, max"
scalar NetK.rte[1].queue[2] drop:count 0
attr interpolationmode none
attr title "dropped packet byte length, count"
attr unit bytes
scalar NetK.rte[1].queue[2] drop:sum 0
attr interpolationmode none
attr title "dropped packet byte length, sum"
attr unit bytes
statistic NetK.rte[1].queue[3] "drop count"
field count 0
field mean nan
field stddev nan
field min nan
field max nan
field sum 0
field sqrsum 0
bin	-inf	0
bin	0	0
bin	1	0
scalar NetK.rte[1].queue[3] rxBytes:count 38
attr interpolationmode none
attr title "received packet byte length, count"
attr unit bytes
scalar NetK.rte[1].queue[3] rxBytes:sum 57000
attr interpolationmode none
attr title "received packet byte length, sum"
attr unit bytes
statistic NetK.rte[1].queue[3] rxBytes:histogram
field count 38
field mean 1500
field stddev 0
field min 1500
field max 1500
field sum 57000
field sqrsum 85500000
attr interpolationmode none
attr title "received packet byte length, histogram"
attr unit bytes
bin	-inf	0
bin	1499	0
bin	1500	38
bin	1501	0
scalar NetK.rte[1].queue[3] txBytes:count 6
attr interpolationmode none
attr title "transmitting packet byte length, count"
attr unit bytes
scalar NetK.rte[1].queue[3] txBytes:sum 9000
attr interpolationmode none
attr title "transmitting packet byte length, sum"
attr unit bytes
statistic NetK.rte[1].queue[3] txBytes:histogram
field count 6
field mean 1500
field stddev 0
field min 1500
field max 1500
field sum 9000
field sqrsum 13500000
attr interpolationmode none
attr title "transmitting packet byte length, histogram"
attr unit bytes
bin	-inf	0
bin	1499	0
bin	1500	6
bin	1501	0
scalar NetK.rte[1].queue[3] busy:timeavg 4.9054906222526e-005
attr interpolationmode sample-hold
attr title "server busy state, timeavg"
scalar NetK.rte[1].queue[3] qlen:timeavg 0
attr interpolationmode sample-hold
attr title "queue length, timeavg"
scalar NetK.rte[1].queue[3] qlen:max 0
attr interpolationmode sample-hold
attr title "queue length, max"
scalar NetK.rte[1].queue[3] drop:count 0
attr interpolationmode none
attr title "dropped packet byte length, count"
attr unit bytes
scalar NetK.rte[1].queue[3] drop:sum 0
attr interpolationmode none
attr title "dropped packet byte length, sum"
attr unit bytes
statistic NetK.rte[1].queue[4] "drop count"
field count 0
field mean nan
field stddev nan
field min nan
field max nan
field sum 0
field sqrsum 0
bin	-inf	0
bin	0	0
bin	1	0
scalar NetK.rte[1].queue[4] rxBytes:count 7733
attr interpolationmode none
attr title "received packet byte length, count"
attr unit bytes
scalar NetK.rte[1].queue[4] rxBytes:sum 11599500
attr interpolationmode none
attr title "received packet byte length, sum"
attr unit bytes
statistic NetK.rte[1].queue[4] rxBytes:histogram
field count 7733
field mean 1500
field stddev 0
field min 1500
field max 1500
field sum 11599500
field sqrsum 17399250000
attr interpolationmode none
attr title "received packet byte length, histogram"
attr unit bytes
bin	-inf	0
bin	1499	0
bin	1500	7733
bin	1501	0
scalar NetK.rte[1].queue[4] txBytes:count 7732
attr interpolationmode none
attr title "transmitting packet byte length, count"
attr unit bytes
scalar NetK.rte[1].queue[4] txBytes:sum 11598000
attr interpolationmode none
attr title "transmitting packet byte length, sum"
attr unit bytes
statistic NetK.rte[1].queue[4] txBytes:histogram
field count 7732
field mean 1500
field stddev 0
field min 1500
field max 1500
field sum 11598000
field sqrsum 17397000000
attr interpolationmode none
attr title "transmitting packet byte length, histogram"
attr unit bytes
bin	-inf	0
bin	1499	0
bin	1500	7732
bin	1501	0
scalar NetK.rte[1].queue[4] busy:timeavg 0.063212082231261
attr interpolationmode sample-hold
attr title "server busy state, timeavg"
scalar NetK.rte[1].queue[4] qlen:timeavg 0
attr interpolationmode sample-hold
attr title "queue length, timeavg"
scalar NetK.rte[1].queue[4] qlen:max 0
attr interpolationmode sample-hold
attr title "queue length, max"
scalar NetK.rte[1].queue[4] drop:count 0
attr interpolationmode none
attr title "dropped packet byte length, count"
attr unit bytes
scalar NetK.rte[1].queue[4] drop:sum 0
attr interpolationmode none
attr title "dropped packet byte length, sum"
attr unit bytes
statistic NetK.rte[1].queue[5] "drop count"
field count 0
field mean nan
field stddev nan
field min nan
field max nan
field sum 0
field sqrsum 0
bin	-inf	0
bin	0	0
bin	1	0
scalar NetK.rte[1].queue[5] rxBytes:count 26
attr interpolationmode none
attr title "received packet byte length, count"
attr unit bytes
scalar NetK.rte[1].queue[5] rxBytes:sum 39000
attr interpolationmode none
attr title "received packet byte length, sum"
attr unit bytes
statistic NetK.rte[1].queue[5] rxBytes:histogram
field count 26
field mean 1500
field stddev 0
field min 1500
field max 1500
field sum 39000
field sqrsum 58500000
attr interpolationmode none
attr title "received packet byte length, histogram"
attr unit bytes
bin	-inf	0
bin	1499	0
bin	1500	26
bin	1501	0
scalar NetK.rte[1].queue[5] txBytes:count 14
attr interpolationmode none
attr title "transmitting packet byte length, count"
attr unit bytes
scalar NetK.rte[1].queue[5] txBytes:sum 21000
attr interpolationmode none
attr title "transmitting packet byte length, sum"
attr unit bytes
statistic NetK.rte[1].queue[5] txBytes:histogram
field count 14
field mean 1500
field stddev 0
field min 1500
field max 1500
field sum 21000
field sqrsum 31500000
attr interpolationmode none
attr title "transmitting packet byte length, histogram"
attr unit bytes
bin	-inf	0
bin	1499	0
bin	1500	14
bin	1501	0
scalar NetK.rte[1].queue[5] busy:timeavg 0.00011446144785256
attr interpolationmode sample-hold
attr title "server busy state, timeavg"
scalar NetK.rte[1].queue[5] qlen:timeavg 0
attr interpolationmode sample-hold
attr title "queue length, timeavg"
scalar NetK.rte[1].queue[5] qlen:max 0
attr interpolationmode sample-hold
attr title "queue length, max"
scalar NetK.rte[1].queue[5] drop:count 0
attr interpolationmode none
attr title "dropped packet byte length, count"
attr unit bytes
scalar NetK.rte[1].queue[5] drop:sum 0
attr interpolationmode none
attr title "dropped packet byte length, sum"
attr unit bytes
scalar NetK.rte[2].app #sent -1.0616550136539e+308
scalar NetK.rte[2].app #received -1.0616541568277e+308
statistic NetK.rte[2].app "hop count"
field count 0
field mean nan
field stddev nan
field min nan
field max nan
field sum 0
field sqrsum 0
bin	-inf	0
bin	0	0
bin	1	0
scalar NetK.rte[2].app hopCount:mean nan
attr interpolationmode none
attr title "hop count of arrived packets, mean"
scalar NetK.rte[2].app hopCount:max nan
attr interpolationmode none
attr title "hop count of arrived packets, max"
scalar NetK.rte[2].app hopCount:count 0
attr interpolationmode none
attr title "hop count of arrived packets, count"
statistic NetK.rte[2].app hopCount:histogram
field count 0
field mean nan
field stddev nan
field min nan
field max nan
field sum 0
field sqrsum 0
attr interpolationmode none
attr title "hop count of arrived packets, histogram"
bin	-inf	0
bin	0	0
bin	1	0
scalar NetK.rte[2].app endToEndDelay:mean nan
attr interpolationmode none
attr title "end-to-end delay of arrived packets, mean"
attr unit s
scalar NetK.rte[2].app endToEndDelay:max nan
attr interpolationmode none
attr title "end-to-end delay of arrived packets, max"
attr unit s
scalar NetK.rte[2].app endToEndDelay:count 0
attr interpolationmode none
attr title "end-to-end delay of arrived packets, count"
attr unit s
statistic NetK.rte[2].routing TopoLinkCounter:histogram
field count 0
field mean nan
field stddev nan
field min nan
field max nan
field sum 0
field sqrsum 0
attr interpolationmode none
attr title "Number of links enabled in Topology, histogram"
bin	-inf	0
bin	0	0
bin	1	0
scalar NetK.rte[2].routing TopoLinkCounter:mean nan
attr interpolationmode none
attr title "Number of links enabled in Topology, mean"
scalar NetK.rte[2].routing TopoLinkCounter:max nan
attr interpolationmode none
attr title "Number of links enabled in Topology, max"
scalar NetK.rte[2].routing TopoLinkCounter:count 0
attr interpolationmode none
attr title "Number of links enabled in Topology, count"
statistic NetK.rte[2].routing outputIf:histogram
field count 0
field mean nan
field stddev nan
field min nan
field max nan
field sum 0
field sqrsum 0
attr interpolationmode none
attr title "output interface for each routed packet, histogram"
bin	-inf	0
bin	0	0
bin	1	0
scalar NetK.rte[2].routing drop:count 0
attr interpolationmode none
attr title "dropped packet byte length, count"
attr unit bytes
scalar NetK.rte[2].routing drop:sum 0
attr interpolationmode none
attr title "dropped packet byte length, sum"
attr unit bytes
statistic NetK.rte[2].routing hopCount:histogram
field count 0
field mean nan
field stddev nan
field min nan
field max nan
field sum 0
field sqrsum 0
attr interpolationmode none
attr title "count number of hops for packet, histogram"
bin	-inf	0
bin	0	0
bin	1	0
scalar NetK.rte[2].routing hopCount:mean nan
attr interpolationmode none
attr title "count number of hops for packet, mean"
scalar NetK.rte[2].routing hopCount:max nan
attr interpolationmode none
attr title "count number of hops for packet, max"
scalar NetK.rte[2].routing hopCount:count 0
attr interpolationmode none
attr title "count number of hops for packet, count"
statistic NetK.rte[2].queue[0] "drop count"
field count 0
field mean nan
field stddev nan
field min nan
field max nan
field sum 0
field sqrsum 0
bin	-inf	0
bin	0	0
bin	1	0
scalar NetK.rte[2].queue[0] rxBytes:count 10
attr interpolationmode none
attr title "received packet byte length, count"
attr unit bytes
scalar NetK.rte[2].queue[0] rxBytes:sum 15000
attr interpolationmode none
attr title "received packet byte length, sum"
attr unit bytes
statistic NetK.rte[2].queue[0] rxBytes:histogram
field count 10
field mean 1500
field stddev 0
field min 1500
field max 1500
field sum 15000
field sqrsum 22500000
attr interpolationmode none
attr title "received packet byte length, histogram"
attr unit bytes
bin	-inf	0
bin	1499	0
bin	1500	10
bin	1501	0
scalar NetK.rte[2].queue[0] txBytes:count 17
attr interpolationmode none
attr title "transmitting packet byte length, count"
attr unit bytes
scalar NetK.rte[2].queue[0] txBytes:sum 25500
attr interpolationmode none
attr title "transmitting packet byte length, sum"
attr unit bytes
statistic NetK.rte[2].queue[0] txBytes:histogram
field count 17
field mean 1500
field stddev 0
field min 1500
field max 1500
field sum 25500
field sqrsum 38250000
attr interpolationmode none
attr title "transmitting packet byte length, histogram"
attr unit bytes
bin	-inf	0
bin	1499	0
bin	1500	17
bin	1501	0
scalar NetK.rte[2].queue[0] busy:timeavg 0.00013898890096382
attr interpolationmode sample-hold
attr title "server busy state, timeavg"
scalar NetK.rte[2].queue[0] qlen:timeavg 0
attr interpolationmode sample-hold
attr title "queue length, timeavg"
scalar NetK.rte[2].queue[0] qlen:max 0
attr interpolationmode sample-hold
attr title "queue length, max"
scalar NetK.rte[2].queue[0] drop:count 0
attr interpolationmode none
attr title "dropped packet byte length, count"
attr unit bytes
scalar NetK.rte[2].queue[0] drop:sum 0
attr interpolationmode none
attr title "dropped packet byte length, sum"
attr unit bytes
statistic NetK.rte[2].queue[1] "drop count"
field count 0
field mean nan
field stddev nan
field min nan
field max nan
field sum 0
field sqrsum 0
bin	-inf	0
bin	0	0
bin	1	0
scalar NetK.rte[2].queue[1] rxBytes:count 25
attr interpolationmode none
attr title "received packet byte length, count"
attr unit bytes
scalar NetK.rte[2].queue[1] rxBytes:sum 37500
attr interpolationmode none
attr title "received packet byte length, sum"
attr unit bytes
statistic NetK.rte[2].queue[1] rxBytes:histogram
field count 25
field mean 1500
field stddev 0
field min 1500
field max 1500
field sum 37500
field sqrsum 56250000
attr interpolationmode none
attr title "received packet byte length, histogram"
attr unit bytes
bin	-inf	0
bin	1499	0
bin	1500	25
bin	1501	0
scalar NetK.rte[2].queue[1] txBytes:count 34
attr interpolationmode none
attr title "transmitting packet byte length, count"
attr unit bytes
scalar NetK.rte[2].queue[1] txBytes:sum 51000
attr interpolationmode none
attr title "transmitting packet byte length, sum"
attr unit bytes
statistic NetK.rte[2].queue[1] txBytes:histogram
field count 34
field mean 1500
field stddev 0
field min 1500
field max 1500
field sum 51000
field sqrsum 76500000
attr interpolationmode none
attr title "transmitting packet byte length, histogram"
attr unit bytes
bin	-inf	0
bin	1499	0
bin	1500	34
bin	1501	0
scalar NetK.rte[2].queue[1] busy:timeavg 0.00027797780192765
attr interpolationmode sample-hold
attr title "server busy state, timeavg"
scalar NetK.rte[2].queue[1] qlen:timeavg 0
attr interpolationmode sample-hold
attr title "queue length, timeavg"
scalar NetK.rte[2].queue[1] qlen:max 0
attr interpolationmode sample-hold
attr title "queue length, max"
scalar NetK.rte[2].queue[1] drop:count 0
attr interpolationmode none
attr title "dropped packet byte length, count"
attr unit bytes
scalar NetK.rte[2].queue[1] drop:sum 0
attr interpolationmode none
attr title "dropped packet byte length, sum"
attr unit bytes
statistic NetK.rte[2].queue[2] "drop count"
field count 0
field mean nan
field stddev nan
field min nan
field max nan
field sum 0
field sqrsum 0
bin	-inf	0
bin	0	0
bin	1	0
scalar NetK.rte[2].queue[2] rxBytes:count 10438
attr interpolationmode none
attr title "received packet byte length, count"
attr unit bytes
scalar NetK.rte[2].queue[2] rxBytes:sum 15657000
attr interpolationmode none
attr title "received packet byte length, sum"
attr unit bytes
statistic NetK.rte[2].queue[2] rxBytes:histogram
field count 10438
field mean 1500
field stddev 0
field min 1500
field max 1500
field sum 15657000
field sqrsum 23485500000
attr interpolationmode none
attr title "received packet byte length, histogram"
attr unit bytes
bin	-inf	0
bin	1499	0
bin	1500	10438
bin	1501	0
scalar NetK.rte[2].queue[2] txBytes:count 10442
attr interpolationmode none
attr title "transmitting packet byte length, count"
attr unit bytes
scalar NetK.rte[2].queue[2] txBytes:sum 15663000
attr interpolationmode none
attr title "transmitting packet byte length, sum"
attr unit bytes
statistic NetK.rte[2].queue[2] txBytes:histogram
field count 10442
field mean 1500
field stddev 0
field min 1500
field max 1500
field sum 15663000
field sqrsum 23494500000
attr interpolationmode none
attr title "transmitting packet byte length, histogram"
attr unit bytes
bin	-inf	0
bin	1499	0
bin	1500	10442
bin	1501	0
scalar NetK.rte[2].queue[2] busy:timeavg 0.085371888462618
attr interpolationmode sample-hold
attr title "server busy state, timeavg"
scalar NetK.rte[2].queue[2] qlen:timeavg 0
attr interpolationmode sample-hold
attr title "queue length, timeavg"
scalar NetK.rte[2].queue[2] qlen:max 0
attr interpolationmode sample-hold
attr title "queue length, max"
scalar NetK.rte[2].queue[2] drop:count 0
attr interpolationmode none
attr title "dropped packet byte length, count"
attr unit bytes
scalar NetK.rte[2].queue[2] drop:sum 0
attr interpolationmode none
attr title "dropped packet byte length, sum"
attr unit bytes
statistic NetK.rte[2].queue[3] "drop count"
field count 0
field mean nan
field stddev nan
field min nan
field max nan
field sum 0
field sqrsum 0
bin	-inf	0
bin	0	0
bin	1	0
scalar NetK.rte[2].queue[3] rxBytes:count 60
attr interpolationmode none
attr title "received packet byte length, count"
attr unit bytes
scalar NetK.rte[2].queue[3] rxBytes:sum 90000
attr interpolationmode none
attr title "received packet byte length, sum"
attr unit bytes
statistic NetK.rte[2].queue[3] rxBytes:histogram
field count 60
field mean 1500
field stddev 0
field min 1500
field max 1500
field sum 90000
field sqrsum 135000000
attr interpolationmode none
attr title "received packet byte length, histogram"
attr unit bytes
bin	-inf	0
bin	1499	0
bin	1500	60
bin	1501	0
scalar NetK.rte[2].queue[3] txBytes:count 68
attr interpolationmode none
attr title "transmitting packet byte length, count"
attr unit bytes
scalar NetK.rte[2].queue[3] txBytes:sum 102000
attr interpolationmode none
attr title "transmitting packet byte length, sum"
attr unit bytes
statistic NetK.rte[2].queue[3] txBytes:histogram
field count 68
field mean 1500
field stddev 0
field min 1500
field max 1500
field sum 102000
field sqrsum 153000000
attr interpolationmode none
attr title "transmitting packet byte length, histogram"
attr unit bytes
bin	-inf	0
bin	1499	0
bin	1500	68
bin	1501	0
scalar NetK.rte[2].queue[3] busy:timeavg 0.0005559556038553
attr interpolationmode sample-hold
attr title "server busy state, timeavg"
scalar NetK.rte[2].queue[3] qlen:timeavg 0
attr interpolationmode sample-hold
attr title "queue length, timeavg"
scalar NetK.rte[2].queue[3] qlen:max 0
attr interpolationmode sample-hold
attr title "queue length, max"
scalar NetK.rte[2].queue[3] drop:count 0
attr interpolationmode none
attr title "dropped packet byte length, count"
attr unit bytes
scalar NetK.rte[2].queue[3] drop:sum 0
attr interpolationmode none
attr title "dropped packet byte length, sum"
attr unit bytes
statistic NetK.rte[2].queue[4] "drop count"
field count 0
field mean nan
field stddev nan
field min nan
field max nan
field sum 0
field sqrsum 0
bin	-inf	0
bin	0	0
bin	1	0
scalar NetK.rte[2].queue[4] rxBytes:count 84
attr interpolationmode none
attr title "received packet byte length, count"
attr unit bytes
scalar NetK.rte[2].queue[4] rxBytes:sum 126000
attr interpolationmode none
attr title "received packet byte length, sum"
attr unit bytes
statistic NetK.rte[2].queue[4] rxBytes:histogram
field count 84
field mean 1500
field stddev 0
field min 1500
field max 1500
field sum 126000
field sqrsum 189000000
attr interpolationmode none
attr title "received packet byte length, histogram"
attr unit bytes
bin	-inf	0
bin	1499	0
bin	1500	84
bin	1501	0
scalar NetK.rte[2].queue[4] txBytes:count 30
attr interpolationmode none
attr title "transmitting packet byte length, count"
attr unit bytes
scalar NetK.rte[2].queue[4] txBytes:sum 45000
attr interpolationmode none
attr title "transmitting packet byte length, sum"
attr unit bytes
statistic NetK.rte[2].queue[4] txBytes:histogram
field count 30
field mean 1500
field stddev 0
field min 1500
field max 1500
field sum 45000
field sqrsum 67500000
attr interpolationmode none
attr title "transmitting packet byte length, histogram"
attr unit bytes
bin	-inf	0
bin	1499	0
bin	1500	30
bin	1501	0
scalar NetK.rte[2].queue[4] busy:timeavg 0.00024527453111263
attr interpolationmode sample-hold
attr title "server busy state, timeavg"
scalar NetK.rte[2].queue[4] qlen:timeavg 0
attr interpolationmode sample-hold
attr title "queue length, timeavg"
scalar NetK.rte[2].queue[4] qlen:max 0
attr interpolationmode sample-hold
attr title "queue length, max"
scalar NetK.rte[2].queue[4] drop:count 0
attr interpolationmode none
attr title "dropped packet byte length, count"
attr unit bytes
scalar NetK.rte[2].queue[4] drop:sum 0
attr interpolationmode none
attr title "dropped packet byte length, sum"
attr unit bytes
statistic NetK.rte[2].queue[5] "drop count"
field count 0
field mean nan
field stddev nan
field min nan
field max nan
field sum 0
field sqrsum 0
bin	-inf	0
bin	0	0
bin	1	0
scalar NetK.rte[2].queue[5] rxBytes:count 26
attr interpolationmode none
attr title "received packet byte length, count"
attr unit bytes
scalar NetK.rte[2].queue[5] rxBytes:sum 39000
attr interpolationmode none
attr title "received packet byte length, sum"
attr unit bytes
statistic NetK.rte[2].queue[5] rxBytes:histogram
field count 26
field mean 1500
field stddev 0
field min 1500
field max 1500
field sum 39000
field sqrsum 58500000
attr interpolationmode none
attr title "received packet byte length, histogram"
attr unit bytes
bin	-inf	0
bin	1499	0
bin	1500	26
bin	1501	0
scalar NetK.rte[2].queue[5] txBytes:count 24
attr interpolationmode none
attr title "transmitting packet byte length, count"
attr unit bytes
scalar NetK.rte[2].queue[5] txBytes:sum 36000
attr interpolationmode none
attr title "transmitting packet byte length, sum"
attr unit bytes
statistic NetK.rte[2].queue[5] txBytes:histogram
field count 24
field mean 1500
field stddev 0
field min 1500
field max 1500
field sum 36000
field sqrsum 54000000
attr interpolationmode none
attr title "transmitting packet byte length, histogram"
attr unit bytes
bin	-inf	0
bin	1499	0
bin	1500	24
bin	1501	0
scalar NetK.rte[2].queue[5] busy:timeavg 0.0001962196248901
attr interpolationmode sample-hold
attr title "server busy state, timeavg"
scalar NetK.rte[2].queue[5] qlen:timeavg 0
attr interpolationmode sample-hold
attr title "queue length, timeavg"
scalar NetK.rte[2].queue[5] qlen:max 0
attr interpolationmode sample-hold
attr title "queue length, max"
scalar NetK.rte[2].queue[5] drop:count 0
attr interpolationmode none
attr title "dropped packet byte length, count"
attr unit bytes
scalar NetK.rte[2].queue[5] drop:sum 0
attr interpolationmode none
attr title "dropped packet byte length, sum"
attr unit bytes
scalar NetK.rte[3].app #sent -1.1193784681468e+308
scalar NetK.rte[3].app #received -1.1193784681468e+308
statistic NetK.rte[3].app "hop count"
field count 0
field mean nan
field stddev nan
field min nan
field max nan
field sum 0
field sqrsum 0
bin	-inf	0
bin	0	0
bin	1	0
scalar NetK.rte[3].app hopCount:mean nan
attr interpolationmode none
attr title "hop count of arrived packets, mean"
scalar NetK.rte[3].app hopCount:max nan
attr interpolationmode none
attr title "hop count of arrived packets, max"
scalar NetK.rte[3].app hopCount:count 0
attr interpolationmode none
attr title "hop count of arrived packets, count"
statistic NetK.rte[3].app hopCount:histogram
field count 0
field mean nan
field stddev nan
field min nan
field max nan
field sum 0
field sqrsum 0
attr interpolationmode none
attr title "hop count of arrived packets, histogram"
bin	-inf	0
bin	0	0
bin	1	0
scalar NetK.rte[3].app endToEndDelay:mean nan
attr interpolationmode none
attr title "end-to-end delay of arrived packets, mean"
attr unit s
scalar NetK.rte[3].app endToEndDelay:max nan
attr interpolationmode none
attr title "end-to-end delay of arrived packets, max"
attr unit s
scalar NetK.rte[3].app endToEndDelay:count 0
attr interpolationmode none
attr title "end-to-end delay of arrived packets, count"
attr unit s
statistic NetK.rte[3].routing TopoLinkCounter:histogram
field count 0
field mean nan
field stddev nan
field min nan
field max nan
field sum 0
field sqrsum 0
attr interpolationmode none
attr title "Number of links enabled in Topology, histogram"
bin	-inf	0
bin	0	0
bin	1	0
scalar NetK.rte[3].routing TopoLinkCounter:mean nan
attr interpolationmode none
attr title "Number of links enabled in Topology, mean"
scalar NetK.rte[3].routing TopoLinkCounter:max nan
attr interpolationmode none
attr title "Number of links enabled in Topology, max"
scalar NetK.rte[3].routing TopoLinkCounter:count 0
attr interpolationmode none
attr title "Number of links enabled in Topology, count"
statistic NetK.rte[3].routing outputIf:histogram
field count 0
field mean nan
field stddev nan
field min nan
field max nan
field sum 0
field sqrsum 0
attr interpolationmode none
attr title "output interface for each routed packet, histogram"
bin	-inf	0
bin	0	0
bin	1	0
scalar NetK.rte[3].routing drop:count 0
attr interpolationmode none
attr title "dropped packet byte length, count"
attr unit bytes
scalar NetK.rte[3].routing drop:sum 0
attr interpolationmode none
attr title "dropped packet byte length, sum"
attr unit bytes
statistic NetK.rte[3].routing hopCount:histogram
field count 0
field mean nan
field stddev nan
field min nan
field max nan
field sum 0
field sqrsum 0
attr interpolationmode none
attr title "count number of hops for packet, histogram"
bin	-inf	0
bin	0	0
bin	1	0
scalar NetK.rte[3].routing hopCount:mean nan
attr interpolationmode none
attr title "count number of hops for packet, mean"
scalar NetK.rte[3].routing hopCount:max nan
attr interpolationmode none
attr title "count number of hops for packet, max"
scalar NetK.rte[3].routing hopCount:count 0
attr interpolationmode none
attr title "count number of hops for packet, count"
statistic NetK.rte[3].queue[0] "drop count"
field count 0
field mean nan
field stddev nan
field min nan
field max nan
field sum 0
field sqrsum 0
bin	-inf	0
bin	0	0
bin	1	0
scalar NetK.rte[3].queue[0] rxBytes:count 34
attr interpolationmode none
attr title "received packet byte length, count"
attr unit bytes
scalar NetK.rte[3].queue[0] rxBytes:sum 51000
attr interpolationmode none
attr title "received packet byte length, sum"
attr unit bytes
statistic NetK.rte[3].queue[0] rxBytes:histogram
field count 34
field mean 1500
field stddev 0
field min 1500
field max 1500
field sum 51000
field sqrsum 76500000
attr interpolationmode none
attr title "received packet byte length, histogram"
attr unit bytes
bin	-inf	0
bin	1499	0
bin	1500	34
bin	1501	0
scalar NetK.rte[3].queue[0] txBytes:count 25
attr interpolationmode none
attr title "transmitting packet byte length, count"
attr unit bytes
scalar NetK.rte[3].queue[0] txBytes:sum 37500
attr interpolationmode none
attr title "transmitting packet byte length, sum"
attr unit bytes
statistic NetK.rte[3].queue[0] txBytes:histogram
field count 25
field mean 1500
field stddev 0
field min 1500
field max 1500
field sum 37500
field sqrsum 56250000
attr interpolationmode none
attr title "transmitting packet byte length, histogram"
attr unit bytes
bin	-inf	0
bin	1499	0
bin	1500	25
bin	1501	0
scalar NetK.rte[3].queue[0] busy:timeavg 0.00020439544259386
attr interpolationmode sample-hold
attr title "server busy state, timeavg"
scalar NetK.rte[3].queue[0] qlen:timeavg 0
attr interpolationmode sample-hold
attr title "queue length, timeavg"
scalar NetK.rte[3].queue[0] qlen:max 0
attr interpolationmode sample-hold
attr title "queue length, max"
scalar NetK.rte[3].queue[0] drop:count 0
attr interpolationmode none
attr title "dropped packet byte length, count"
attr unit bytes
scalar NetK.rte[3].queue[0] drop:sum 0
attr interpolationmode none
attr title "dropped packet byte length, sum"
attr unit bytes
statistic NetK.rte[3].queue[1] "drop count"
field count 0
field mean nan
field stddev nan
field min nan
field max nan
field sum 0
field sqrsum 0
bin	-inf	0
bin	0	0
bin	1	0
scalar NetK.rte[3].queue[1] rxBytes:count 60
attr interpolationmode none
attr title "received packet byte length, count"
attr unit bytes
scalar NetK.rte[3].queue[1] rxBytes:sum 90000
attr interpolationmode none
attr title "received packet byte length, sum"
attr unit bytes
statistic NetK.rte[3].queue[1] rxBytes:histogram
field count 60
field mean 1500
field stddev 0
field min 1500
field max 1500
field sum 90000
field sqrsum 135000000
attr interpolationmode none
attr title "received packet byte length, histogram"
attr unit bytes
bin	-inf	0
bin	1499	0
bin	1500	60
bin	1501	0
scalar NetK.rte[3].queue[1] txBytes:count 29
attr interpolationmode none
attr title "transmitting packet byte length, count"
attr unit bytes
scalar NetK.rte[3].queue[1] txBytes:sum 43500
attr interpolationmode none
attr title "transmitting packet byte length, sum"
attr unit bytes
statistic NetK.rte[3].queue[1] txBytes:histogram
field count 29
field mean 1500
field stddev 0
field min 1500
field max 1500
field sum 43500
field sqrsum 65250000
attr interpolationmode none
attr title "transmitting packet byte length, histogram"
attr unit bytes
bin	-inf	0
bin	1499	0
bin	1500	29
bin	1501	0
scalar NetK.rte[3].queue[1] busy:timeavg 0.00023709871340888
attr interpolationmode sample-hold
attr title "server busy state, timeavg"
scalar NetK.rte[3].queue[1] qlen:timeavg 0
attr interpolationmode sample-hold
attr title "queue length, timeavg"
scalar NetK.rte[3].queue[1] qlen:max 0
attr interpolationmode sample-hold
attr title "queue length, max"
scalar NetK.rte[3].queue[1] drop:count 0
attr interpolationmode none
attr title "dropped packet byte length, count"
attr unit bytes
scalar NetK.rte[3].queue[1] drop:sum 0
attr interpolationmode none
attr title "dropped packet byte length, sum"
attr unit bytes
statistic NetK.rte[3].queue[2] "drop count"
field count 0
field mean nan
field stddev nan
field min nan
field max nan
field sum 0
field sqrsum 0
bin	-inf	0
bin	0	0
bin	1	0
scalar NetK.rte[3].queue[2] rxBytes:count 41
attr interpolationmode none
attr title "received packet byte length, count"
attr unit bytes
scalar NetK.rte[3].queue[2] rxBytes:sum 61500
attr interpolationmode none
attr title "received packet byte length, sum"
attr unit bytes
statistic NetK.rte[3].queue[2] rxBytes:histogram
field count 41
field mean 1500
field stddev 0
field min 1500
field max 1500
field sum 61500
field sqrsum 92250000
attr interpolationmode none
attr title "received packet byte length, histogram"
attr unit bytes
bin	-inf	0
bin	1499	0
bin	1500	41
bin	1501	0
scalar NetK.rte[3].queue[2] txBytes:count 44
attr interpolationmode none
attr title "transmitting packet byte length, count"
attr unit bytes
scalar NetK.rte[3].queue[2] txBytes:sum 66000
attr interpolationmode none
attr title "transmitting packet byte length, sum"
attr unit bytes
statistic NetK.rte[3].queue[2] txBytes:histogram
field count 44
field mean 1500
field stddev 0
field min 1500
field max 1500
field sum 66000
field sqrsum 99000000
attr interpolationmode none
attr title "transmitting packet byte length, histogram"
attr unit bytes
bin	-inf	0
bin	1499	0
bin	1500	44
bin	1501	0
scalar NetK.rte[3].queue[2] busy:timeavg 0.00035973597896519
attr interpolationmode sample-hold
attr title "server busy state, timeavg"
scalar NetK.rte[3].queue[2] qlen:timeavg 0
attr interpolationmode sample-hold
attr title "queue length, timeavg"
scalar NetK.rte[3].queue[2] qlen:max 0
attr interpolationmode sample-hold
attr title "queue length, max"
scalar NetK.rte[3].queue[2] drop:count 0
attr interpolationmode none
attr title "dropped packet byte length, count"
attr unit bytes
scalar NetK.rte[3].queue[2] drop:sum 0
attr interpolationmode none
attr title "dropped packet byte length, sum"
attr unit bytes
statistic NetK.rte[3].queue[3] "drop count"
field count 0
field mean nan
field stddev nan
field min nan
field max nan
field sum 0
field sqrsum 0
bin	-inf	0
bin	0	0
bin	1	0
scalar NetK.rte[3].queue[3] rxBytes:count 38
attr interpolationmode none
attr title "received packet byte length, count"
attr unit bytes
scalar NetK.rte[3].queue[3] rxBytes:sum 57000
attr interpolationmode none
attr title "received packet byte length, sum"
attr unit bytes
statistic NetK.rte[3].queue[3] rxBytes:histogram
field count 38
field mean 1500
field stddev 0
field min 1500
field max 1500
field sum 57000
field sqrsum 85500000
attr interpolationmode none
attr title "received packet byte length, histogram"
attr unit bytes
bin	-inf	0
bin	1499	0
bin	1500	38
bin	1501	0
scalar NetK.rte[3].queue[3] txBytes:count 21
attr interpolationmode none
attr title "transmitting packet byte length, count"
attr unit bytes
scalar NetK.rte[3].queue[3] txBytes:sum 31500
attr interpolationmode none
attr title "transmitting packet byte length, sum"
attr unit bytes
statistic NetK.rte[3].queue[3] txBytes:histogram
field count 21
field mean 1500
field stddev 0
field min 1500
field max 1500
field sum 31500
field sqrsum 47250000
attr interpolationmode none
attr title "transmitting packet byte length, histogram"
attr unit bytes
bin	-inf	0
bin	1499	0
bin	1500	21
bin	1501	0
scalar NetK.rte[3].queue[3] busy:timeavg 0.00017169217177884
attr interpolationmode sample-hold
attr title "server busy state, timeavg"
scalar NetK.rte[3].queue[3] qlen:timeavg 0
attr interpolationmode sample-hold
attr title "queue length, timeavg"
scalar NetK.rte[3].queue[3] qlen:max 0
attr interpolationmode sample-hold
attr title "queue length, max"
scalar NetK.rte[3].queue[3] drop:count 0
attr interpolationmode none
attr title "dropped packet byte length, count"
attr unit bytes
scalar NetK.rte[3].queue[3] drop:sum 0
attr interpolationmode none
attr title "dropped packet byte length, sum"
attr unit bytes
statistic NetK.rte[3].queue[4] "drop count"
field count 0
field mean nan
field stddev nan
field min nan
field max nan
field sum 0
field sqrsum 0
bin	-inf	0
bin	0	0
bin	1	0
scalar NetK.rte[3].queue[4] rxBytes:count 37
attr interpolationmode none
attr title "received packet byte length, count"
attr unit bytes
scalar NetK.rte[3].queue[4] rxBytes:sum 55500
attr interpolationmode none
attr title "received packet byte length, sum"
attr unit bytes
statistic NetK.rte[3].queue[4] rxBytes:histogram
field count 37
field mean 1500
field stddev 0
field min 1500
field max 1500
field sum 55500
field sqrsum 83250000
attr interpolationmode none
attr title "received packet byte length, histogram"
attr unit bytes
bin	-inf	0
bin	1499	0
bin	1500	37
bin	1501	0
scalar NetK.rte[3].queue[4] txBytes:count 30
attr interpolationmode none
attr title "transmitting packet byte length, count"
attr unit bytes
scalar NetK.rte[3].queue[4] txBytes:sum 45000
attr interpolationmode none
attr title "transmitting packet byte length, sum"
attr unit bytes
statistic NetK.rte[3].queue[4] txBytes:histogram
field count 30
field mean 1500
field stddev 0
field min 1500
field max 1500
field sum 45000
field sqrsum 67500000
attr interpolationmode none
attr title "transmitting packet byte length, histogram"
attr unit bytes
bin	-inf	0
bin	1499	0
bin	1500	30
bin	1501	0
scalar NetK.rte[3].queue[4] busy:timeavg 0.00024527453111263
attr interpolationmode sample-hold
attr title "server busy state, timeavg"
scalar NetK.rte[3].queue[4] qlen:timeavg 0
attr interpolationmode sample-hold
attr title "queue length, timeavg"
scalar NetK.rte[3].queue[4] qlen:max 0
attr interpolationmode sample-hold
attr title "queue length, max"
scalar NetK.rte[3].queue[4] drop:count 0
attr interpolationmode none
attr title "dropped packet byte length, count"
attr unit bytes
scalar NetK.rte[3].queue[4] drop:sum 0
attr interpolationmode none
attr title "dropped packet byte length, sum"
attr unit bytes
statistic NetK.rte[3].queue[5] "drop count"
field count 0
field mean nan
field stddev nan
field min nan
field max nan
field sum 0
field sqrsum 0
bin	-inf	0
bin	0	0
bin	1	0
scalar NetK.rte[3].queue[5] rxBytes:count 5
attr interpolationmode none
attr title "received packet byte length, count"
attr unit bytes
scalar NetK.rte[3].queue[5] rxBytes:sum 7500
attr interpolationmode none
attr title "received packet byte length, sum"
attr unit bytes
statistic NetK.rte[3].queue[5] rxBytes:histogram
field count 5
field mean 1500
field stddev 0
field min 1500
field max 1500
field sum 7500
field sqrsum 11250000
attr interpolationmode none
attr title "received packet byte length, histogram"
attr unit bytes
bin	-inf	0
bin	1499	0
bin	1500	5
bin	1501	0
scalar NetK.rte[3].queue[5] txBytes:count 86
attr interpolationmode none
attr title "transmitting packet byte length, count"
attr unit bytes
scalar NetK.rte[3].queue[5] txBytes:sum 129000
attr interpolationmode none
attr title "transmitting packet byte length, sum"
attr unit bytes
statistic NetK.rte[3].queue[5] txBytes:histogram
field count 86
field mean 1500
field stddev 0
field min 1500
field max 1500
field sum 129000
field sqrsum 193500000
attr interpolationmode none
attr title "transmitting packet byte length, histogram"
attr unit bytes
bin	-inf	0
bin	1499	0
bin	1500	86
bin	1501	0
scalar NetK.rte[3].queue[5] busy:timeavg 0.00070312032252287
attr interpolationmode sample-hold
attr title "server busy state, timeavg"
scalar NetK.rte[3].queue[5] qlen:timeavg 0
attr interpolationmode sample-hold
attr title "queue length, timeavg"
scalar NetK.rte[3].queue[5] qlen:max 0
attr interpolationmode sample-hold
attr title "queue length, max"
scalar NetK.rte[3].queue[5] drop:count 0
attr interpolationmode none
attr title "dropped packet byte length, count"
attr unit bytes
scalar NetK.rte[3].queue[5] drop:sum 0
attr interpolationmode none
attr title "dropped packet byte length, sum"
attr unit bytes
scalar NetK.rte[4].app #sent -1.1193784681468e+308
scalar NetK.rte[4].app #received -1.1193784681468e+308
statistic NetK.rte[4].app "hop count"
field count 0
field mean nan
field stddev nan
field min nan
field max nan
field sum 0
field sqrsum 0
bin	-inf	0
bin	0	0
bin	1	0
scalar NetK.rte[4].app hopCount:mean nan
attr interpolationmode none
attr title "hop count of arrived packets, mean"
scalar NetK.rte[4].app hopCount:max nan
attr interpolationmode none
attr title "hop count of arrived packets, max"
scalar NetK.rte[4].app hopCount:count 0
attr interpolationmode none
attr title "hop count of arrived packets, count"
statistic NetK.rte[4].app hopCount:histogram
field count 0
field mean nan
field stddev nan
field min nan
field max nan
field sum 0
field sqrsum 0
attr interpolationmode none
attr title "hop count of arrived packets, histogram"
bin	-inf	0
bin	0	0
bin	1	0
scalar NetK.rte[4].app endToEndDelay:mean nan
attr interpolationmode none
attr title "end-to-end delay of arrived packets, mean"
attr unit s
scalar NetK.rte[4].app endToEndDelay:max nan
attr interpolationmode none
attr title "end-to-end delay of arrived packets, max"
attr unit s
scalar NetK.rte[4].app endToEndDelay:count 0
attr interpolationmode none
attr title "end-to-end delay of arrived packets, count"
attr unit s
statistic NetK.rte[4].routing TopoLinkCounter:histogram
field count 0
field mean nan
field stddev nan
field min nan
field max nan
field sum 0
field sqrsum 0
attr interpolationmode none
attr title "Number of links enabled in Topology, histogram"
bin	-inf	0
bin	0	0
bin	1	0
scalar NetK.rte[4].routing TopoLinkCounter:mean nan
attr interpolationmode none
attr title "Number of links enabled in Topology, mean"
scalar NetK.rte[4].routing TopoLinkCounter:max nan
attr interpolationmode none
attr title "Number of links enabled in Topology, max"
scalar NetK.rte[4].routing TopoLinkCounter:count 0
attr interpolationmode none
attr title "Number of links enabled in Topology, count"
statistic NetK.rte[4].routing outputIf:histogram
field count 0
field mean nan
field stddev nan
field min nan
field max nan
field sum 0
field sqrsum 0
attr interpolationmode none
attr title "output interface for each routed packet, histogram"
bin	-inf	0
bin	0	0
bin	1	0
scalar NetK.rte[4].routing drop:count 0
attr interpolationmode none
attr title "dropped packet byte length, count"
attr unit bytes
scalar NetK.rte[4].routing drop:sum 0
attr interpolationmode none
attr title "dropped packet byte length, sum"
attr unit bytes
statistic NetK.rte[4].routing hopCount:histogram
field count 0
field mean nan
field stddev nan
field min nan
field max nan
field sum 0
field sqrsum 0
attr interpolationmode none
attr title "count number of hops for packet, histogram"
bin	-inf	0
bin	0	0
bin	1	0
scalar NetK.rte[4].routing hopCount:mean nan
attr interpolationmode none
attr title "count number of hops for packet, mean"
scalar NetK.rte[4].routing hopCount:max nan
attr interpolationmode none
attr title "count number of hops for packet, max"
scalar NetK.rte[4].routing hopCount:count 0
attr interpolationmode none
attr title "count number of hops for packet, count"
statistic NetK.rte[4].queue[0] "drop count"
field count 0
field mean nan
field stddev nan
field min nan
field max nan
field sum 0
field sqrsum 0
bin	-inf	0
bin	0	0
bin	1	0
scalar NetK.rte[4].queue[0] rxBytes:count 29
attr interpolationmode none
attr title "received packet byte length, count"
attr unit bytes
scalar NetK.rte[4].queue[0] rxBytes:sum 43500
attr interpolationmode none
attr title "received packet byte length, sum"
attr unit bytes
statistic NetK.rte[4].queue[0] rxBytes:histogram
field count 29
field mean 1500
field stddev 0
field min 1500
field max 1500
field sum 43500
field sqrsum 65250000
attr interpolationmode none
attr title "received packet byte length, histogram"
attr unit bytes
bin	-inf	0
bin	1499	0
bin	1500	29
bin	1501	0
scalar NetK.rte[4].queue[0] txBytes:count 60
attr interpolationmode none
attr title "transmitting packet byte length, count"
attr unit bytes
scalar NetK.rte[4].queue[0] txBytes:sum 90000
attr interpolationmode none
attr title "transmitting packet byte length, sum"
attr unit bytes
statistic NetK.rte[4].queue[0] txBytes:histogram
field count 60
field mean 1500
field stddev 0
field min 1500
field max 1500
field sum 90000
field sqrsum 135000000
attr interpolationmode none
attr title "transmitting packet byte length, histogram"
attr unit bytes
bin	-inf	0
bin	1499	0
bin	1500	60
bin	1501	0
scalar NetK.rte[4].queue[0] busy:timeavg 0.00049054906222526
attr interpolationmode sample-hold
attr title "server busy state, timeavg"
scalar NetK.rte[4].queue[0] qlen:timeavg 0
attr interpolationmode sample-hold
attr title "queue length, timeavg"
scalar NetK.rte[4].queue[0] qlen:max 0
attr interpolationmode sample-hold
attr title "queue length, max"
scalar NetK.rte[4].queue[0] drop:count 0
attr interpolationmode none
attr title "dropped packet byte length, count"
attr unit bytes
scalar NetK.rte[4].queue[0] drop:sum 0
attr interpolationmode none
attr title "dropped packet byte length, sum"
attr unit bytes
statistic NetK.rte[4].queue[1] "drop count"
field count 0
field mean nan
field stddev nan
field min nan
field max nan
field sum 0
field sqrsum 0
bin	-inf	0
bin	0	0
bin	1	0
scalar NetK.rte[4].queue[1] rxBytes:count 49
attr interpolationmode none
attr title "received packet byte length, count"
attr unit bytes
scalar NetK.rte[4].queue[1] rxBytes:sum 73500
attr interpolationmode none
attr title "received packet byte length, sum"
attr unit bytes
statistic NetK.rte[4].queue[1] rxBytes:histogram
field count 49
field mean 1500
field stddev 0
field min 1500
field max 1500
field sum 73500
field sqrsum 110250000
attr interpolationmode none
attr title "received packet byte length, histogram"
attr unit bytes
bin	-inf	0
bin	1499	0
bin	1500	49
bin	1501	0
scalar NetK.rte[4].queue[1] txBytes:count 18
attr interpolationmode none
attr title "transmitting packet byte length, count"
attr unit bytes
scalar NetK.rte[4].queue[1] txBytes:sum 27000
attr interpolationmode none
attr title "transmitting packet byte length, sum"
attr unit bytes
statistic NetK.rte[4].queue[1] txBytes:histogram
field count 18
field mean 1500
field stddev 0
field min 1500
field max 1500
field sum 27000
field sqrsum 40500000
attr interpolationmode none
attr title "transmitting packet byte length, histogram"
attr unit bytes
bin	-inf	0
bin	1499	0
bin	1500	18
bin	1501	0
scalar NetK.rte[4].queue[1] busy:timeavg 0.00014716471866758
attr interpolationmode sample-hold
attr title "server busy state, timeavg"
scalar NetK.rte[4].queue[1] qlen:timeavg 0
attr interpolationmode sample-hold
attr title "queue length, timeavg"
scalar NetK.rte[4].queue[1] qlen:max 0
attr interpolationmode sample-hold
attr title "queue length, max"
scalar NetK.rte[4].queue[1] drop:count 0
attr interpolationmode none
attr title "dropped packet byte length, count"
attr unit bytes
scalar NetK.rte[4].queue[1] drop:sum 0
attr interpolationmode none
attr title "dropped packet byte length, sum"
attr unit bytes
statistic NetK.rte[4].queue[2] "drop count"
field count 0
field mean nan
field stddev nan
field min nan
field max nan
field sum 0
field sqrsum 0
bin	-inf	0
bin	0	0
bin	1	0
scalar NetK.rte[4].queue[2] rxBytes:count 17
attr interpolationmode none
attr title "received packet byte length, count"
attr unit bytes
scalar NetK.rte[4].queue[2] rxBytes:sum 25500
attr interpolationmode none
attr title "received packet byte length, sum"
attr unit bytes
statistic NetK.rte[4].queue[2] rxBytes:histogram
field count 17
field mean 1500
field stddev 0
field min 1500
field max 1500
field sum 25500
field sqrsum 38250000
attr interpolationmode none
attr title "received packet byte length, histogram"
attr unit bytes
bin	-inf	0
bin	1499	0
bin	1500	17
bin	1501	0
scalar NetK.rte[4].queue[2] txBytes:count 12
attr interpolationmode none
attr title "transmitting packet byte length, count"
attr unit bytes
scalar NetK.rte[4].queue[2] txBytes:sum 18000
attr interpolationmode none
attr title "transmitting packet byte length, sum"
attr unit bytes
statistic NetK.rte[4].queue[2] txBytes:histogram
field count 12
field mean 1500
field stddev 0
field min 1500
field max 1500
field sum 18000
field sqrsum 27000000
attr interpolationmode none
attr title "transmitting packet byte length, histogram"
attr unit bytes
bin	-inf	0
bin	1499	0
bin	1500	12
bin	1501	0
scalar NetK.rte[4].queue[2] busy:timeavg 9.8109812445052e-005
attr interpolationmode sample-hold
attr title "server busy state, timeavg"
scalar NetK.rte[4].queue[2] qlen:timeavg 0
attr interpolationmode sample-hold
attr title "queue length, timeavg"
scalar NetK.rte[4].queue[2] qlen:max 0
attr interpolationmode sample-hold
attr title "queue length, max"
scalar NetK.rte[4].queue[2] drop:count 0
attr interpolationmode none
attr title "dropped packet byte length, count"
attr unit bytes
scalar NetK.rte[4].queue[2] drop:sum 0
attr interpolationmode none
attr title "dropped packet byte length, sum"
attr unit bytes
statistic NetK.rte[4].queue[3] "drop count"
field count 0
field mean nan
field stddev nan
field min nan
field max nan
field sum 0
field sqrsum 0
bin	-inf	0
bin	0	0
bin	1	0
scalar NetK.rte[4].queue[3] rxBytes:count 32
attr interpolationmode none
attr title "received packet byte length, count"
attr unit bytes
scalar NetK.rte[4].queue[3] rxBytes:sum 48000
attr interpolationmode none
attr title "received packet byte length, sum"
attr unit bytes
statistic NetK.rte[4].queue[3] rxBytes:histogram
field count 32
field mean 1500
field stddev 0
field min 1500
field max 1500
field sum 48000
field sqrsum 72000000
attr interpolationmode none
attr title "received packet byte length, histogram"
attr unit bytes
bin	-inf	0
bin	1499	0
bin	1500	32
bin	1501	0
scalar NetK.rte[4].queue[3] txBytes:count 63
attr interpolationmode none
attr title "transmitting packet byte length, count"
attr unit bytes
scalar NetK.rte[4].queue[3] txBytes:sum 94500
attr interpolationmode none
attr title "transmitting packet byte length, sum"
attr unit bytes
statistic NetK.rte[4].queue[3] txBytes:histogram
field count 63
field mean 1500
field stddev 0
field min 1500
field max 1500
field sum 94500
field sqrsum 141750000
attr interpolationmode none
attr title "transmitting packet byte length, histogram"
attr unit bytes
bin	-inf	0
bin	1499	0
bin	1500	63
bin	1501	0
scalar NetK.rte[4].queue[3] busy:timeavg 0.00051507651533652
attr interpolationmode sample-hold
attr title "server busy state, timeavg"
scalar NetK.rte[4].queue[3] qlen:timeavg 0
attr interpolationmode sample-hold
attr title "queue length, timeavg"
scalar NetK.rte[4].queue[3] qlen:max 0
attr interpolationmode sample-hold
attr title "queue length, max"
scalar NetK.rte[4].queue[3] drop:count 0
attr interpolationmode none
attr title "dropped packet byte length, count"
attr unit bytes
scalar NetK.rte[4].queue[3] drop:sum 0
attr interpolationmode none
attr title "dropped packet byte length, sum"
attr unit bytes
statistic NetK.rte[4].queue[4] "drop count"
field count 0
field mean nan
field stddev nan
field min nan
field max nan
field sum 0
field sqrsum 0
bin	-inf	0
bin	0	0
bin	1	0
scalar NetK.rte[4].queue[4] rxBytes:count 22
attr interpolationmode none
attr title "received packet byte length, count"
attr unit bytes
scalar NetK.rte[4].queue[4] rxBytes:sum 33000
attr interpolationmode none
attr title "received packet byte length, sum"
attr unit bytes
statistic NetK.rte[4].queue[4] rxBytes:histogram
field count 22
field mean 1500
field stddev 0
field min 1500
field max 1500
field sum 33000
field sqrsum 49500000
attr interpolationmode none
attr title "received packet byte length, histogram"
attr unit bytes
bin	-inf	0
bin	1499	0
bin	1500	22
bin	1501	0
scalar NetK.rte[4].queue[4] txBytes:count 22
attr interpolationmode none
attr title "transmitting packet byte length, count"
attr unit bytes
scalar NetK.rte[4].queue[4] txBytes:sum 33000
attr interpolationmode none
attr title "transmitting packet byte length, sum"
attr unit bytes
statistic NetK.rte[4].queue[4] txBytes:histogram
field count 22
field mean 1500
field stddev 0
field min 1500
field max 1500
field sum 33000
field sqrsum 49500000
attr interpolationmode none
attr title "transmitting packet byte length, histogram"
attr unit bytes
bin	-inf	0
bin	1499	0
bin	1500	22
bin	1501	0
scalar NetK.rte[4].queue[4] busy:timeavg 0.0001798679894826
attr interpolationmode sample-hold
attr title "server busy state, timeavg"
scalar NetK.rte[4].queue[4] qlen:timeavg 0
attr interpolationmode sample-hold
attr title "queue length, timeavg"
scalar NetK.rte[4].queue[4] qlen:max 0
attr interpolationmode sample-hold
attr title "queue length, max"
scalar NetK.rte[4].queue[4] drop:count 0
attr interpolationmode none
attr title "dropped packet byte length, count"
attr unit bytes
scalar NetK.rte[4].queue[4] drop:sum 0
attr interpolationmode none
attr title "dropped packet byte length, sum"
attr unit bytes
statistic NetK.rte[4].queue[5] "drop count"
field count 0
field mean nan
field stddev nan
field min nan
field max nan
field sum 0
field sqrsum 0
bin	-inf	0
bin	0	0
bin	1	0
scalar NetK.rte[4].queue[5] rxBytes:count 29
attr interpolationmode none
[...]
scalar NetK.rte[23].queue[3] drop:sum 0
attr interpolationmode none
attr title "dropped packet byte length, sum"
attr unit bytes
statistic NetK.rte[23].queue[4] "drop count"
field count 0
field mean nan
field stddev nan
field min nan
field max nan
field sum 0
field sqrsum 0
bin	-inf	0
bin	0	0
bin	1	0
scalar NetK.rte[23].queue[4] rxBytes:count 22
attr interpolationmode none
attr title "received packet byte length, count"
attr unit bytes
scalar NetK.rte[23].queue[4] rxBytes:sum 33000
attr interpolationmode none
attr title "received packet byte length, sum"
attr unit bytes
statistic NetK.rte[23].queue[4] rxBytes:histogram
field count 22
field mean 1500
field stddev 0
field min 1500
field max 1500
field sum 33000
field sqrsum 49500000
attr interpolationmode none
attr title "received packet byte length, histogram"
attr unit bytes
bin	-inf	0
bin	1499	0
bin	1500	22
bin	1501	0
scalar NetK.rte[23].queue[4] txBytes:count 22
attr interpolationmode none
attr title "transmitting packet byte length, count"
attr unit bytes
scalar NetK.rte[23].queue[4] txBytes:sum 33000
attr interpolationmode none
attr title "transmitting packet byte length, sum"
attr unit bytes
statistic NetK.rte[23].queue[4] txBytes:histogram
field count 22
field mean 1500
field stddev 0
field min 1500
field max 1500
field sum 33000
field sqrsum 49500000
attr interpolationmode none
attr title "transmitting packet byte length, histogram"
attr unit bytes
bin	-inf	0
bin	1499	0
bin	1500	22
bin	1501	0
scalar NetK.rte[23].queue[4] busy:timeavg 0.0001798679894826
attr interpolationmode sample-hold
attr title "server busy state, timeavg"
scalar NetK.rte[23].queue[4] qlen:timeavg 0
attr interpolationmode sample-hold
attr title "queue length, timeavg"
scalar NetK.rte[23].queue[4] qlen:max 0
attr interpolationmode sample-hold
attr title "queue length, max"
scalar NetK.rte[23].queue[4] drop:count 0
attr interpolationmode none
attr title "dropped packet byte length, count"
attr unit bytes
scalar NetK.rte[23].queue[4] drop:sum 0
attr interpolationmode none
attr title "dropped packet byte length, sum"
attr unit bytes
statistic NetK.rte[23].queue[5] "drop count"
field count 0
field mean nan
field stddev nan
field min nan
field max nan
field sum 0
field sqrsum 0
bin	-inf	0
bin	0	0
bin	1	0
scalar NetK.rte[23].queue[5] rxBytes:count 65
attr interpolationmode none
attr title "received packet byte length, count"
attr unit bytes
scalar NetK.rte[23].queue[5] rxBytes:sum 97500
attr interpolationmode none
attr title "received packet byte length, sum"
attr unit bytes
statistic NetK.rte[23].queue[5] rxBytes:histogram
field count 65
field mean 1500
field stddev 0
field min 1500
field max 1500
field sum 97500
field sqrsum 146250000
attr interpolationmode none
attr title "received packet byte length, histogram"
attr unit bytes
bin	-inf	0
bin	1499	0
bin	1500	65
bin	1501	0
scalar NetK.rte[23].queue[5] txBytes:count 9
attr interpolationmode none
attr title "transmitting packet byte length, count"
attr unit bytes
scalar NetK.rte[23].queue[5] txBytes:sum 13500
attr interpolationmode none
attr title "transmitting packet byte length, sum"
attr unit bytes
statistic NetK.rte[23].queue[5] txBytes:histogram
field count 9
field mean 1500
field stddev 0
field min 1500
field max 1500
field sum 13500
field sqrsum 20250000
attr interpolationmode none
attr title "transmitting packet byte length, histogram"
attr unit bytes
bin	-inf	0
bin	1499	0
bin	1500	9
bin	1501	0
scalar NetK.rte[23].queue[5] busy:timeavg 7.3582359333789e-005
attr interpolationmode sample-hold
attr title "server busy state, timeavg"
scalar NetK.rte[23].queue[5] qlen:timeavg 0
attr interpolationmode sample-hold
attr title "queue length, timeavg"
scalar NetK.rte[23].queue[5] qlen:max 0
attr interpolationmode sample-hold
attr title "queue length, max"
scalar NetK.rte[23].queue[5] drop:count 0
attr interpolationmode none
attr title "dropped packet byte length, count"
attr unit bytes
scalar NetK.rte[23].queue[5] drop:sum 0
attr interpolationmode none
attr title "dropped packet byte length, sum"
attr unit bytes
scalar NetK.rte[24].app #sent 0
scalar NetK.rte[24].app #received 0
statistic NetK.rte[24].app "hop count"
field count 0
field mean nan
field stddev nan
field min nan
field max nan
field sum 0
field sqrsum 0
bin	-inf	0
bin	0	0
bin	1	0
scalar NetK.rte[24].app hopCount:mean nan
attr interpolationmode none
attr title "hop count of arrived packets, mean"
scalar NetK.rte[24].app hopCount:max nan
attr interpolationmode none
attr title "hop count of arrived packets, max"
scalar NetK.rte[24].app hopCount:count 0
attr interpolationmode none
attr title "hop count of arrived packets, count"
statistic NetK.rte[24].app hopCount:histogram
field count 0
field mean nan
field stddev nan
field min nan
field max nan
field sum 0
field sqrsum 0
attr interpolationmode none
attr title "hop count of arrived packets, histogram"
bin	-inf	0
bin	0	0
bin	1	0
scalar NetK.rte[24].app endToEndDelay:mean nan
attr interpolationmode none
attr title "end-to-end delay of arrived packets, mean"
attr unit s
scalar NetK.rte[24].app endToEndDelay:max nan
attr interpolationmode none
attr title "end-to-end delay of arrived packets, max"
attr unit s
scalar NetK.rte[24].app endToEndDelay:count 0
attr interpolationmode none
attr title "end-to-end delay of arrived packets, count"
attr unit s
statistic NetK.rte[24].routing TopoLinkCounter:histogram
field count 0
field mean nan
field stddev nan
field min nan
field max nan
field sum 0
field sqrsum 0
attr interpolationmode none
attr title "Number of links enabled in Topology, histogram"
bin	-inf	0
bin	0	0
bin	1	0
scalar NetK.rte[24].routing TopoLinkCounter:mean nan
attr interpolationmode none
attr title "Number of links enabled in Topology, mean"
scalar NetK.rte[24].routing TopoLinkCounter:max nan
attr interpolationmode none
attr title "Number of links enabled in Topology, max"
scalar NetK.rte[24].routing TopoLinkCounter:count 0
attr interpolationmode none
attr title "Number of links enabled in Topology, count"
statistic NetK.rte[24].routing outputIf:histogram
field count 0
field mean nan
field stddev nan
field min nan
field max nan
field sum 0
field sqrsum 0
attr interpolationmode none
attr title "output interface for each routed packet, histogram"
bin	-inf	0
bin	0	0
bin	1	0
scalar NetK.rte[24].routing drop:count 0
attr interpolationmode none
attr title "dropped packet byte length, count"
attr unit bytes
scalar NetK.rte[24].routing drop:sum 0
attr interpolationmode none
attr title "dropped packet byte length, sum"
attr unit bytes
statistic NetK.rte[24].routing hopCount:histogram
field count 0
field mean nan
field stddev nan
field min nan
field max nan
field sum 0
field sqrsum 0
attr interpolationmode none
attr title "count number of hops for packet, histogram"
bin	-inf	0
bin	0	0
bin	1	0
scalar NetK.rte[24].routing hopCount:mean nan
attr interpolationmode none
attr title "count number of hops for packet, mean"
scalar NetK.rte[24].routing hopCount:max nan
attr interpolationmode none
attr title "count number of hops for packet, max"
scalar NetK.rte[24].routing hopCount:count 0
attr interpolationmode none
attr title "count number of hops for packet, count"
statistic NetK.rte[24].queue[0] "drop count"
field count 0
field mean nan
field stddev nan
field min nan
field max nan
field sum 0
field sqrsum 0
bin	-inf	0
bin	0	0
bin	1	0
scalar NetK.rte[24].queue[0] rxBytes:count 55
attr interpolationmode none
attr title "received packet byte length, count"
attr unit bytes
scalar NetK.rte[24].queue[0] rxBytes:sum 82500
attr interpolationmode none
attr title "received packet byte length, sum"
attr unit bytes
statistic NetK.rte[24].queue[0] rxBytes:histogram
field count 55
field mean 1500
field stddev 0
field min 1500
field max 1500
field sum 82500
field sqrsum 123750000
attr interpolationmode none
attr title "received packet byte length, histogram"
attr unit bytes
bin	-inf	0
bin	1499	0
bin	1500	55
bin	1501	0
scalar NetK.rte[24].queue[0] txBytes:count 50
attr interpolationmode none
attr title "transmitting packet byte length, count"
attr unit bytes
scalar NetK.rte[24].queue[0] txBytes:sum 75000
attr interpolationmode none
attr title "transmitting packet byte length, sum"
attr unit bytes
statistic NetK.rte[24].queue[0] txBytes:histogram
field count 50
field mean 1500
field stddev 0
field min 1500
field max 1500
field sum 75000
field sqrsum 112500000
attr interpolationmode none
attr title "transmitting packet byte length, histogram"
attr unit bytes
bin	-inf	0
bin	1499	0
bin	1500	50
bin	1501	0
scalar NetK.rte[24].queue[0] busy:timeavg 0.00040879088518772
attr interpolationmode sample-hold
attr title "server busy state, timeavg"
scalar NetK.rte[24].queue[0] qlen:timeavg 0
attr interpolationmode sample-hold
attr title "queue length, timeavg"
scalar NetK.rte[24].queue[0] qlen:max 0
attr interpolationmode sample-hold
attr title "queue length, max"
scalar NetK.rte[24].queue[0] drop:count 0
attr interpolationmode none
attr title "dropped packet byte length, count"
attr unit bytes
scalar NetK.rte[24].queue[0] drop:sum 0
attr interpolationmode none
attr title "dropped packet byte length, sum"
attr unit bytes
statistic NetK.rte[24].queue[1] "drop count"
field count 0
field mean nan
field stddev nan
field min nan
field max nan
field sum 0
field sqrsum 0
bin	-inf	0
bin	0	0
bin	1	0
scalar NetK.rte[24].queue[1] rxBytes:count 52
attr interpolationmode none
attr title "received packet byte length, count"
attr unit bytes
scalar NetK.rte[24].queue[1] rxBytes:sum 78000
attr interpolationmode none
attr title "received packet byte length, sum"
attr unit bytes
statistic NetK.rte[24].queue[1] rxBytes:histogram
field count 52
field mean 1500
field stddev 0
field min 1500
field max 1500
field sum 78000
field sqrsum 117000000
attr interpolationmode none
attr title "received packet byte length, histogram"
attr unit bytes
bin	-inf	0
bin	1499	0
bin	1500	52
bin	1501	0
scalar NetK.rte[24].queue[1] txBytes:count 26
attr interpolationmode none
attr title "transmitting packet byte length, count"
attr unit bytes
scalar NetK.rte[24].queue[1] txBytes:sum 39000
attr interpolationmode none
attr title "transmitting packet byte length, sum"
attr unit bytes
statistic NetK.rte[24].queue[1] txBytes:histogram
field count 26
field mean 1500
field stddev 0
field min 1500
field max 1500
field sum 39000
field sqrsum 58500000
attr interpolationmode none
attr title "transmitting packet byte length, histogram"
attr unit bytes
bin	-inf	0
bin	1499	0
bin	1500	26
bin	1501	0
scalar NetK.rte[24].queue[1] busy:timeavg 0.00021257126029761
attr interpolationmode sample-hold
attr title "server busy state, timeavg"
scalar NetK.rte[24].queue[1] qlen:timeavg 0
attr interpolationmode sample-hold
attr title "queue length, timeavg"
scalar NetK.rte[24].queue[1] qlen:max 0
attr interpolationmode sample-hold
attr title "queue length, max"
scalar NetK.rte[24].queue[1] drop:count 0
attr interpolationmode none
attr title "dropped packet byte length, count"
attr unit bytes
scalar NetK.rte[24].queue[1] drop:sum 0
attr interpolationmode none
attr title "dropped packet byte length, sum"
attr unit bytes
statistic NetK.rte[24].queue[2] "drop count"
field count 0
field mean nan
field stddev nan
field min nan
field max nan
field sum 0
field sqrsum 0
bin	-inf	0
bin	0	0
bin	1	0
scalar NetK.rte[24].queue[2] rxBytes:count 3
attr interpolationmode none
attr title "received packet byte length, count"
attr unit bytes
scalar NetK.rte[24].queue[2] rxBytes:sum 4500
attr interpolationmode none
attr title "received packet byte length, sum"
attr unit bytes
statistic NetK.rte[24].queue[2] rxBytes:histogram
field count 3
field mean 1500
field stddev 0
field min 1500
field max 1500
field sum 4500
field sqrsum 6750000
attr interpolationmode none
attr title "received packet byte length, histogram"
attr unit bytes
bin	-inf	0
bin	1499	0
bin	1500	3
bin	1501	0
scalar NetK.rte[24].queue[2] txBytes:count 62
attr interpolationmode none
attr title "transmitting packet byte length, count"
attr unit bytes
scalar NetK.rte[24].queue[2] txBytes:sum 93000
attr interpolationmode none
attr title "transmitting packet byte length, sum"
attr unit bytes
statistic NetK.rte[24].queue[2] txBytes:histogram
field count 62
field mean 1500
field stddev 0
field min 1500
field max 1500
field sum 93000
field sqrsum 139500000
attr interpolationmode none
attr title "transmitting packet byte length, histogram"
attr unit bytes
bin	-inf	0
bin	1499	0
bin	1500	62
bin	1501	0
scalar NetK.rte[24].queue[2] busy:timeavg 0.00050690069763277
attr interpolationmode sample-hold
attr title "server busy state, timeavg"
scalar NetK.rte[24].queue[2] qlen:timeavg 0
attr interpolationmode sample-hold
attr title "queue length, timeavg"
scalar NetK.rte[24].queue[2] qlen:max 0
attr interpolationmode sample-hold
attr title "queue length, max"
scalar NetK.rte[24].queue[2] drop:count 0
attr interpolationmode none
attr title "dropped packet byte length, count"
attr unit bytes
scalar NetK.rte[24].queue[2] drop:sum 0
attr interpolationmode none
attr title "dropped packet byte length, sum"
attr unit bytes
statistic NetK.rte[24].queue[3] "drop count"
field count 0
field mean nan
field stddev nan
field min nan
field max nan
field sum 0
field sqrsum 0
bin	-inf	0
bin	0	0
bin	1	0
scalar NetK.rte[24].queue[3] rxBytes:count 63
attr interpolationmode none
attr title "received packet byte length, count"
attr unit bytes
scalar NetK.rte[24].queue[3] rxBytes:sum 94500
attr interpolationmode none
attr title "received packet byte length, sum"
attr unit bytes
statistic NetK.rte[24].queue[3] rxBytes:histogram
field count 63
field mean 1500
field stddev 0
field min 1500
field max 1500
field sum 94500
field sqrsum 141750000
attr interpolationmode none
attr title "received packet byte length, histogram"
attr unit bytes
bin	-inf	0
bin	1499	0
bin	1500	63
bin	1501	0
scalar NetK.rte[24].queue[3] txBytes:count 32
attr interpolationmode none
attr title "transmitting packet byte length, count"
attr unit bytes
scalar NetK.rte[24].queue[3] txBytes:sum 48000
attr interpolationmode none
attr title "transmitting packet byte length, sum"
attr unit bytes
statistic NetK.rte[24].queue[3] txBytes:histogram
field count 32
field mean 1500
field stddev 0
field min 1500
field max 1500
field sum 48000
field sqrsum 72000000
attr interpolationmode none
attr title "transmitting packet byte length, histogram"
attr unit bytes
bin	-inf	0
bin	1499	0
bin	1500	32
bin	1501	0
scalar NetK.rte[24].queue[3] busy:timeavg 0.00026162616652014
attr interpolationmode sample-hold
attr title "server busy state, timeavg"
scalar NetK.rte[24].queue[3] qlen:timeavg 0
attr interpolationmode sample-hold
attr title "queue length, timeavg"
scalar NetK.rte[24].queue[3] qlen:max 0
attr interpolationmode sample-hold
attr title "queue length, max"
scalar NetK.rte[24].queue[3] drop:count 0
attr interpolationmode none
attr title "dropped packet byte length, count"
attr unit bytes
scalar NetK.rte[24].queue[3] drop:sum 0
attr interpolationmode none
attr title "dropped packet byte length, sum"
attr unit bytes
statistic NetK.rte[24].queue[4] "drop count"
field count 0
field mean nan
field stddev nan
field min nan
field max nan
field sum 0
field sqrsum 0
bin	-inf	0
bin	0	0
bin	1	0
scalar NetK.rte[24].queue[4] rxBytes:count 42
attr interpolationmode none
attr title "received packet byte length, count"
attr unit bytes
scalar NetK.rte[24].queue[4] rxBytes:sum 63000
attr interpolationmode none
attr title "received packet byte length, sum"
attr unit bytes
statistic NetK.rte[24].queue[4] rxBytes:histogram
field count 42
field mean 1500
field stddev 0
field min 1500
field max 1500
field sum 63000
field sqrsum 94500000
attr interpolationmode none
attr title "received packet byte length, histogram"
attr unit bytes
bin	-inf	0
bin	1499	0
bin	1500	42
bin	1501	0
scalar NetK.rte[24].queue[4] txBytes:count 19
attr interpolationmode none
attr title "transmitting packet byte length, count"
attr unit bytes
scalar NetK.rte[24].queue[4] txBytes:sum 28500
attr interpolationmode none
attr title "transmitting packet byte length, sum"
attr unit bytes
statistic NetK.rte[24].queue[4] txBytes:histogram
field count 19
field mean 1500
field stddev 0
field min 1500
field max 1500
field sum 28500
field sqrsum 42750000
attr interpolationmode none
attr title "transmitting packet byte length, histogram"
attr unit bytes
bin	-inf	0
bin	1499	0
bin	1500	19
bin	1501	0
scalar NetK.rte[24].queue[4] busy:timeavg 0.00015534053637133
attr interpolationmode sample-hold
attr title "server busy state, timeavg"
scalar NetK.rte[24].queue[4] qlen:timeavg 0
attr interpolationmode sample-hold
attr title "queue length, timeavg"
scalar NetK.rte[24].queue[4] qlen:max 0
attr interpolationmode sample-hold
attr title "queue length, max"
scalar NetK.rte[24].queue[4] drop:count 0
attr interpolationmode none
attr title "dropped packet byte length, count"
attr unit bytes
scalar NetK.rte[24].queue[4] drop:sum 0
attr interpolationmode none
attr title "dropped packet byte length, sum"
attr unit bytes
statistic NetK.rte[24].queue[5] "drop count"
field count 0
field mean nan
field stddev nan
field min nan
field max nan
field sum 0
field sqrsum 0
bin	-inf	0
bin	0	0
bin	1	0
scalar NetK.rte[24].queue[5] rxBytes:count 27
attr interpolationmode none
attr title "received packet byte length, count"
attr unit bytes
scalar NetK.rte[24].queue[5] rxBytes:sum 40500
attr interpolationmode none
attr title "received packet byte length, sum"
attr unit bytes
statistic NetK.rte[24].queue[5] rxBytes:histogram
field count 27
field mean 1500
field stddev 0
field min 1500
field max 1500
field sum 40500
field sqrsum 60750000
attr interpolationmode none
attr title "received packet byte length, histogram"
attr unit bytes
bin	-inf	0
bin	1499	0
bin	1500	27
bin	1501	0
scalar NetK.rte[24].queue[5] txBytes:count 49
attr interpolationmode none
attr title "transmitting packet byte length, count"
attr unit bytes
scalar NetK.rte[24].queue[5] txBytes:sum 73500
attr interpolationmode none
attr title "transmitting packet byte length, sum"
attr unit bytes
statistic NetK.rte[24].queue[5] txBytes:histogram
field count 49
field mean 1500
field stddev 0
field min 1500
field max 1500
field sum 73500
field sqrsum 110250000
attr interpolationmode none
attr title "transmitting packet byte length, histogram"
attr unit bytes
bin	-inf	0
bin	1499	0
bin	1500	49
bin	1501	0
scalar NetK.rte[24].queue[5] busy:timeavg 0.00040061506748396
attr interpolationmode sample-hold
attr title "server busy state, timeavg"
scalar NetK.rte[24].queue[5] qlen:timeavg 0
attr interpolationmode sample-hold
attr title "queue length, timeavg"
scalar NetK.rte[24].queue[5] qlen:max 0
attr interpolationmode sample-hold
attr title "queue length, max"
scalar NetK.rte[24].queue[5] drop:count 0
attr interpolationmode none
attr title "dropped packet byte length, count"
attr unit bytes
scalar NetK.rte[24].queue[5] drop:sum 0
attr interpolationmode none
attr title "dropped packet byte length, sum"
attr unit bytes
scalar NetK.terminal[0].app numSent 293778
scalar NetK.terminal[0].app numReceived 0
scalar NetK.terminal[0].app endToEndDelay:mean nan
attr interpolationmode none
attr title "end-to-end delay of arrived packets, mean"
attr unit s
scalar NetK.terminal[0].app endToEndDelay:max nan
attr interpolationmode none
attr title "end-to-end delay of arrived packets, max"
attr unit s
scalar NetK.terminal[0].app endToEndDelay:count 0
attr interpolationmode none
attr title "end-to-end delay of arrived packets, count"
attr unit s
scalar NetK.terminal[1].app numSent 293982
scalar NetK.terminal[1].app numReceived 0
scalar NetK.terminal[1].app endToEndDelay:mean nan
attr interpolationmode none
attr title "end-to-end delay of arrived packets, mean"
attr unit s
scalar NetK.terminal[1].app endToEndDelay:max nan
attr interpolationmode none
attr title "end-to-end delay of arrived packets, max"
attr unit s
scalar NetK.terminal[1].app endToEndDelay:count 0
attr interpolationmode none
attr title "end-to-end delay of arrived packets, count"
attr unit s

