version 2
run NetK-0-20200916-12:23:05-4008
attr configname NetK
attr datetime 20200916-12:23:05
attr experiment NetK
attr inifile omnetpp.ini
attr iterationvars "$seed=1, $alpha=5, $mVar=5, $LB=true, $LinkPre=true"
attr iterationvarsf seed=1,alpha=5,mVar=5,LB=true,LinkPre=true-
attr measurement "$seed=1, $alpha=5, $mVar=5, $LB=true, $LinkPre=true"
attr network networks.NetK
attr processid 4008
attr repetition 0
attr replication #0
attr resultdir results
attr runnumber 0
attr seedset 1
itervar LB true
itervar LinkPre true
itervar alpha 5
itervar mVar 5
itervar seed 1
param **.num_of_hosts 25
param **.num_of_terminals 10
param *.rte[*].app.hasApp false
param *.terminal[*].radius 1500m
param *.terminal[*].frac 0.8
param *.rte[*].maxTerminalNumber 10
param *.rte[*].maxHopCountForTerminalList 2
param **.maxX 10000m
param **.maxY 10000m
param **.minX 0m
param **.minY 0m
param *.rte[*].mobility.typename "\"TurtleMobility\""
param *.rte[*].mobilityType "\"TurtleMobility\""
param *.rte[0].mobility.turtleScript "xmldoc(\"mobility.xml\", \"movements//movement[@id='0']\")"
param *.rte[1].mobility.turtleScript "xmldoc(\"mobility.xml\", \"movements//movement[@id='1']\")"
param *.rte[2].mobility.turtleScript "xmldoc(\"mobility.xml\", \"movements//movement[@id='2']\")"
param *.rte[3].mobility.turtleScript "xmldoc(\"mobility.xml\", \"movements//movement[@id='3']\")"
param *.rte[4].mobility.turtleScript "xmldoc(\"mobility.xml\", \"movements//movement[@id='4']\")"
param *.rte[5].mobility.turtleScript "xmldoc(\"mobility.xml\", \"movements//movement[@id='5']\")"
param *.rte[6].mobility.turtleScript "xmldoc(\"mobility.xml\", \"movements//movement[@id='6']\")"
param *.rte[7].mobility.turtleScript "xmldoc(\"mobility.xml\", \"movements//movement[@id='7']\")"
param *.rte[8].mobility.turtleScript "xmldoc(\"mobility.xml\", \"movements//movement[@id='8']\")"
param *.rte[9].mobility.turtleScript "xmldoc(\"mobility.xml\", \"movements//movement[@id='9']\")"
param *.rte[10].mobility.turtleScript "xmldoc(\"mobility.xml\", \"movements//movement[@id='10']\")"
param *.rte[11].mobility.turtleScript "xmldoc(\"mobility.xml\", \"movements//movement[@id='11']\")"
param *.rte[12].mobility.turtleScript "xmldoc(\"mobility.xml\", \"movements//movement[@id='12']\")"
param *.rte[13].mobility.turtleScript "xmldoc(\"mobility.xml\", \"movements//movement[@id='13']\")"
param *.rte[14].mobility.turtleScript "xmldoc(\"mobility.xml\", \"movements//movement[@id='14']\")"
param *.rte[15].mobility.turtleScript "xmldoc(\"mobility.xml\", \"movements//movement[@id='15']\")"
param *.rte[16].mobility.turtleScript "xmldoc(\"mobility.xml\", \"movements//movement[@id='16']\")"
param *.rte[17].mobility.turtleScript "xmldoc(\"mobility.xml\", \"movements//movement[@id='17']\")"
param *.rte[18].mobility.turtleScript "xmldoc(\"mobility.xml\", \"movements//movement[@id='18']\")"
param *.rte[19].mobility.turtleScript "xmldoc(\"mobility.xml\", \"movements//movement[@id='19']\")"
param *.rte[20].mobility.turtleScript "xmldoc(\"mobility.xml\", \"movements//movement[@id='20']\")"
param *.rte[21].mobility.turtleScript "xmldoc(\"mobility.xml\", \"movements//movement[@id='21']\")"
param *.rte[22].mobility.turtleScript "xmldoc(\"mobility.xml\", \"movements//movement[@id='22']\")"
param *.rte[23].mobility.turtleScript "xmldoc(\"mobility.xml\", \"movements//movement[@id='23']\")"
param *.rte[24].mobility.turtleScript "xmldoc(\"mobility.xml\", \"movements//movement[@id='24']\")"
param *.terminal[*].mobility.typename "\"StationaryMobility\""
param *.terminal[*].mobilityType "\"StationaryMobility\""
param **.alpha 5
param **.m_var 5
param **.changeRate 25s
param **.terminal[*].app.packetLength "1500 bytes"
param **.terminal[*].app.sendIaTime exponential(150ms)
param **.terminal[*].app.burst_next_event exponential(25s)
param **.terminal[*].app.burst_next_interval exponential(40ms)
param **.terminal[*].app.burst_size "intuniform (80,320)"
param **.rte[*].frameCapacity 7000
param **.datarate 5Mbps
param **.load_balance_mode true
param **.load_balance_link_prediction true
param **.load_threshold 85
param **.rte[*].appType "\"App\""

scalar NetK.rte[0].grid x 1000
scalar NetK.rte[0].grid y 1000
scalar NetK.rte[0].grid z 0
scalar NetK.rte[1].grid x 3000
scalar NetK.rte[1].grid y 1000
scalar NetK.rte[1].grid z 0
scalar NetK.rte[2].grid x 5000
scalar NetK.rte[2].grid y 1000
scalar NetK.rte[2].grid z 0
scalar NetK.rte[3].grid x 7000
scalar NetK.rte[3].grid y 1000
scalar NetK.rte[3].grid z 0
scalar NetK.rte[4].grid x 9000
scalar NetK.rte[4].grid y 1000
scalar NetK.rte[4].grid z 0
scalar NetK.rte[5].grid x 1000
scalar NetK.rte[5].grid y 3000
scalar NetK.rte[5].grid z 0
scalar NetK.rte[6].grid x 3000
scalar NetK.rte[6].grid y 3000
scalar NetK.rte[6].grid z 0
scalar NetK.rte[7].grid x 5000
scalar NetK.rte[7].grid y 3000
scalar NetK.rte[7].grid z 0
scalar NetK.rte[8].grid x 7000
scalar NetK.rte[8].grid y 3000
scalar NetK.rte[8].grid z 0
scalar NetK.rte[9].grid x 9000
scalar NetK.rte[9].grid y 3000
scalar NetK.rte[9].grid z 0
scalar NetK.rte[10].grid x 1000
scalar NetK.rte[10].grid y 5000
scalar NetK.rte[10].grid z 0
scalar NetK.rte[11].grid x 3000
scalar NetK.rte[11].grid y 5000
scalar NetK.rte[11].grid z 0
scalar NetK.rte[12].grid x 5000
scalar NetK.rte[12].grid y 5000
scalar NetK.rte[12].grid z 0
scalar NetK.rte[13].grid x 7000
scalar NetK.rte[13].grid y 5000
scalar NetK.rte[13].grid z 0
scalar NetK.rte[14].grid x 9000
scalar NetK.rte[14].grid y 5000
scalar NetK.rte[14].grid z 0
scalar NetK.rte[15].grid x 1000
scalar NetK.rte[15].grid y 7000
scalar NetK.rte[15].grid z 0
scalar NetK.rte[16].grid x 3000
scalar NetK.rte[16].grid y 7000
scalar NetK.rte[16].grid z 0
scalar NetK.rte[17].grid x 5000
scalar NetK.rte[17].grid y 7000
scalar NetK.rte[17].grid z 0
scalar NetK.rte[18].grid x 7000
scalar NetK.rte[18].grid y 7000
scalar NetK.rte[18].grid z 0
scalar NetK.rte[19].grid x 9000
scalar NetK.rte[19].grid y 7000
scalar NetK.rte[19].grid z 0
scalar NetK.rte[20].grid x 1000
scalar NetK.rte[20].grid y 9000
scalar NetK.rte[20].grid z 0
scalar NetK.rte[21].grid x 3000
scalar NetK.rte[21].grid y 9000
scalar NetK.rte[21].grid z 0
scalar NetK.rte[22].grid x 5000
scalar NetK.rte[22].grid y 9000
scalar NetK.rte[22].grid z 0
scalar NetK.rte[23].grid x 7000
scalar NetK.rte[23].grid y 9000
scalar NetK.rte[23].grid z 0
scalar NetK.rte[24].grid x 9000
scalar NetK.rte[24].grid y 9000
scalar NetK.rte[24].grid z 0
scalar NetK.rte[0].app #sent 0.25
scalar NetK.rte[0].app #received 0.25
statistic NetK.rte[0].app "hop count"
field count 0
field mean nan
field stddev nan
field min nan
field max nan
field sum 0
field sqrsum 0
bin	-inf	0
bin	0	0
bin	1	0
scalar NetK.rte[0].app hopCount:mean nan
attr interpolationmode none
attr title "hop count of arrived packets, mean"
scalar NetK.rte[0].app hopCount:max nan
attr interpolationmode none
attr title "hop count of arrived packets, max"
scalar NetK.rte[0].app hopCount:count 0
attr interpolationmode none
attr title "hop count of arrived packets, count"
statistic NetK.rte[0].app hopCount:histogram
field count 0
field mean nan
field stddev nan
field min nan
field max nan
field sum 0
field sqrsum 0
attr interpolationmode none
attr title "hop count of arrived packets, histogram"
bin	-inf	0
bin	0	0
bin	1	0
scalar NetK.rte[0].app endToEndDelay:mean nan
attr interpolationmode none
attr title "end-to-end delay of arrived packets, mean"
attr unit s
scalar NetK.rte[0].app endToEndDelay:max nan
attr interpolationmode none
attr title "end-to-end delay of arrived packets, max"
attr unit s
scalar NetK.rte[0].app endToEndDelay:count 0
attr interpolationmode none
attr title "end-to-end delay of arrived packets, count"
attr unit s
scalar NetK.rte[0].routing "Terminal Messages dropped due to wrong prediction" 14
statistic NetK.rte[0].routing TopoLinkCounter:histogram
field count 25
field mean 105.44
field stddev 7.5170916361759
field min 79
field max 118
field sum 2636
field sqrsum 279296
attr interpolationmode none
attr title "Number of links enabled in Topology, histogram"
bin	-inf	0
bin	69	0
bin	70	0
bin	71	0
bin	72	0
bin	73	0
bin	74	0
bin	75	0
bin	76	0
bin	77	0
bin	78	0
bin	79	1
bin	80	0
bin	81	0
bin	82	0
bin	83	0
bin	84	0
bin	85	0
bin	86	0
bin	87	0
bin	88	0
bin	89	0
bin	90	0
bin	91	0
bin	92	0
bin	93	0
bin	94	0
bin	95	0
bin	96	0
bin	97	0
bin	98	1
bin	99	0
bin	100	2
bin	101	2
bin	102	1
bin	103	2
bin	104	3
bin	105	1
bin	106	0
bin	107	1
bin	108	2
bin	109	0
bin	110	4
bin	111	0
bin	112	2
bin	113	1
bin	114	1
bin	115	0
bin	116	0
bin	117	0
bin	118	1
bin	119	0
bin	120	0
bin	121	0
bin	122	0
bin	123	0
bin	124	0
bin	125	0
bin	126	0
bin	127	0
bin	128	0
scalar NetK.rte[0].routing TopoLinkCounter:mean 105.44
attr interpolationmode none
attr title "Number of links enabled in Topology, mean"
scalar NetK.rte[0].routing TopoLinkCounter:max 118
attr interpolationmode none
attr title "Number of links enabled in Topology, max"
scalar NetK.rte[0].routing TopoLinkCounter:count 25
attr interpolationmode none
attr title "Number of links enabled in Topology, count"
statistic NetK.rte[0].routing outputIf:histogram
field count 0
field mean nan
field stddev nan
field min nan
field max nan
field sum 0
field sqrsum 0
attr interpolationmode none
attr title "output interface for each routed packet, histogram"
bin	-inf	0
bin	0	0
bin	1	0
scalar NetK.rte[0].routing drop:count 0
attr interpolationmode none
attr title "dropped packet byte length, count"
attr unit bytes
scalar NetK.rte[0].routing drop:sum 0
attr interpolationmode none
attr title "dropped packet byte length, sum"
attr unit bytes
statistic NetK.rte[0].routing hopCount:histogram
field count 0
field mean nan
field stddev nan
field min nan
field max nan
field sum 0
field sqrsum 0
attr interpolationmode none
attr title "count number of hops for packet, histogram"
bin	-inf	0
bin	0	0
bin	1	0
scalar NetK.rte[0].routing hopCount:mean nan
attr interpolationmode none
attr title "count number of hops for packet, mean"
scalar NetK.rte[0].routing hopCount:max nan
attr interpolationmode none
attr title "count number of hops for packet, max"
scalar NetK.rte[0].routing hopCount:count 0
attr interpolationmode none
attr title "count number of hops for packet, count"
statistic NetK.rte[0].queue[0] "drop count"
field count 114
field mean 57.5
field stddev 33.052987762077
field min 1
field max 114
field sum 6555
field sqrsum 500365
bin	-inf	0
bin	0	1
bin	2	2
bin	4	2
bin	6	2
bin	8	2
bin	10	2
bin	12	2
bin	14	2
bin	16	2
bin	18	2
bin	20	2
bin	22	2
bin	24	2
bin	26	2
bin	28	2
bin	30	2
bin	32	2
bin	34	2
bin	36	2
bin	38	2
bin	40	2
bin	42	2
bin	44	2
bin	46	2
bin	48	2
bin	50	2
bin	52	2
bin	54	2
bin	56	2
bin	58	2
bin	60	2
bin	62	2
bin	64	2
bin	66	2
bin	68	2
bin	70	2
bin	72	2
bin	74	2
bin	76	2
bin	78	2
bin	80	2
bin	82	2
bin	84	2
bin	86	2
bin	88	2
bin	90	2
bin	92	2
bin	94	2
bin	96	2
bin	98	2
bin	100	2
bin	102	2
bin	104	2
bin	106	2
bin	108	2
bin	110	2
bin	112	2
bin	114	1
bin	116	0
bin	118	0
bin	120	0
bin	122	0
bin	124	0
bin	126	0
bin	128	0
bin	130	0
bin	132	0
bin	134	0
bin	136	0
bin	138	0
bin	140	0
bin	142	0
bin	144	0
scalar NetK.rte[0].queue[0] rxBytes:count 59469
attr interpolationmode none
attr title "received packet byte length, count"
attr unit bytes
scalar NetK.rte[0].queue[0] rxBytes:sum 89203500
attr interpolationmode none
attr title "received packet byte length, sum"
attr unit bytes
statistic NetK.rte[0].queue[0] rxBytes:histogram
field count 59469
field mean 1500
field stddev 0
field min 1500
field max 1500
field sum 89203500
field sqrsum 133805250000
attr interpolationmode none
attr title "received packet byte length, histogram"
attr unit bytes
bin	-inf	0
bin	1499	0
bin	1500	59469
bin	1501	0
scalar NetK.rte[0].queue[0] txBytes:count 57421
attr interpolationmode none
attr title "transmitting packet byte length, count"
attr unit bytes
scalar NetK.rte[0].queue[0] txBytes:sum 86131500
attr interpolationmode none
attr title "transmitting packet byte length, sum"
attr unit bytes
statistic NetK.rte[0].queue[0] txBytes:histogram
field count 57421
field mean 1500
field stddev 0
field min 1500
field max 1500
field sum 86131500
field sqrsum 129197250000
attr interpolationmode none
attr title "transmitting packet byte length, histogram"
attr unit bytes
bin	-inf	0
bin	1499	0
bin	1500	57421
bin	1501	0
scalar NetK.rte[0].queue[0] busy:timeavg 0.22962659335151
attr interpolationmode sample-hold
attr title "server busy state, timeavg"
scalar NetK.rte[0].queue[0] qlen:timeavg 0.5970709110457
attr interpolationmode sample-hold
attr title "queue length, timeavg"
scalar NetK.rte[0].queue[0] qlen:max 94
attr interpolationmode sample-hold
attr title "queue length, max"
scalar NetK.rte[0].queue[0] drop:count 114
attr interpolationmode none
attr title "dropped packet byte length, count"
attr unit bytes
scalar NetK.rte[0].queue[0] drop:sum 171000
attr interpolationmode none
attr title "dropped packet byte length, sum"
attr unit bytes
statistic NetK.rte[0].queue[1] "drop count"
field count 0
field mean nan
field stddev nan
field min nan
field max nan
field sum 0
field sqrsum 0
bin	-inf	0
bin	0	0
bin	1	0
scalar NetK.rte[0].queue[1] rxBytes:count 2149
attr interpolationmode none
attr title "received packet byte length, count"
attr unit bytes
scalar NetK.rte[0].queue[1] rxBytes:sum 3223500
attr interpolationmode none
attr title "received packet byte length, sum"
attr unit bytes
statistic NetK.rte[0].queue[1] rxBytes:histogram
field count 2149
field mean 1500
field stddev 0
field min 1500
field max 1500
field sum 3223500
field sqrsum 4835250000
attr interpolationmode none
attr title "received packet byte length, histogram"
attr unit bytes
bin	-inf	0
bin	1499	0
bin	1500	2149
bin	1501	0
scalar NetK.rte[0].queue[1] txBytes:count 540
attr interpolationmode none
attr title "transmitting packet byte length, count"
attr unit bytes
scalar NetK.rte[0].queue[1] txBytes:sum 810000
attr interpolationmode none
attr title "transmitting packet byte length, sum"
attr unit bytes
statistic NetK.rte[0].queue[1] txBytes:histogram
field count 540
field mean 1500
field stddev 0
field min 1500
field max 1500
field sum 810000
field sqrsum 1215000000
attr interpolationmode none
attr title "transmitting packet byte length, histogram"
attr unit bytes
bin	-inf	0
bin	1499	0
bin	1500	540
bin	1501	0
scalar NetK.rte[0].queue[1] busy:timeavg 0.0021594601349663
attr interpolationmode sample-hold
attr title "server busy state, timeavg"
scalar NetK.rte[0].queue[1] qlen:timeavg 0.0017988443422478
attr interpolationmode sample-hold
attr title "queue length, timeavg"
scalar NetK.rte[0].queue[1] qlen:max 10
attr interpolationmode sample-hold
attr title "queue length, max"
scalar NetK.rte[0].queue[1] drop:count 0
attr interpolationmode none
attr title "dropped packet byte length, count"
attr unit bytes
scalar NetK.rte[0].queue[1] drop:sum 0
attr interpolationmode none
attr title "dropped packet byte length, sum"
attr unit bytes
statistic NetK.rte[0].queue[2] "drop count"
field count 0
field mean nan
field stddev nan
field min nan
field max nan
field sum 0
field sqrsum 0
bin	-inf	0
bin	0	0
bin	1	0
scalar NetK.rte[0].queue[2] rxBytes:count 988
attr interpolationmode none
attr title "received packet byte length, count"
attr unit bytes
scalar NetK.rte[0].queue[2] rxBytes:sum 1482000
attr interpolationmode none
attr title "received packet byte length, sum"
attr unit bytes
statistic NetK.rte[0].queue[2] rxBytes:histogram
field count 988
field mean 1500
field stddev 0
field min 1500
field max 1500
field sum 1482000
field sqrsum 2223000000
attr interpolationmode none
attr title "received packet byte length, histogram"
attr unit bytes
bin	-inf	0
bin	1499	0
bin	1500	988
bin	1501	0
scalar NetK.rte[0].queue[2] txBytes:count 1604
attr interpolationmode none
attr title "transmitting packet byte length, count"
attr unit bytes
scalar NetK.rte[0].queue[2] txBytes:sum 2406000
attr interpolationmode none
attr title "transmitting packet byte length, sum"
attr unit bytes
statistic NetK.rte[0].queue[2] txBytes:histogram
field count 1604
field mean 1500
field stddev 0
field min 1500
field max 1500
field sum 2406000
field sqrsum 3609000000
attr interpolationmode none
attr title "transmitting packet byte length, histogram"
attr unit bytes
bin	-inf	0
bin	1499	0
bin	1500	1604
bin	1501	0
scalar NetK.rte[0].queue[2] busy:timeavg 0.0064143964008999
attr interpolationmode sample-hold
attr title "server busy state, timeavg"
scalar NetK.rte[0].queue[2] qlen:timeavg 0.0015823413696576
attr interpolationmode sample-hold
attr title "queue length, timeavg"
scalar NetK.rte[0].queue[2] qlen:max 8
attr interpolationmode sample-hold
attr title "queue length, max"
scalar NetK.rte[0].queue[2] drop:count 0
attr interpolationmode none
attr title "dropped packet byte length, count"
attr unit bytes
scalar NetK.rte[0].queue[2] drop:sum 0
attr interpolationmode none
attr title "dropped packet byte length, sum"
attr unit bytes
statistic NetK.rte[0].queue[3] "drop count"
field count 0
field mean nan
field stddev nan
field min nan
field max nan
field sum 0
field sqrsum 0
bin	-inf	0
bin	0	0
bin	1	0
scalar NetK.rte[0].queue[3] rxBytes:count 1137
attr interpolationmode none
attr title "received packet byte length, count"
attr unit bytes
scalar NetK.rte[0].queue[3] rxBytes:sum 1705500
attr interpolationmode none
attr title "received packet byte length, sum"
attr unit bytes
statistic NetK.rte[0].queue[3] rxBytes:histogram
field count 1137
field mean 1500
field stddev 0
field min 1500
field max 1500
field sum 1705500
field sqrsum 2558250000
attr interpolationmode none
attr title "received packet byte length, histogram"
attr unit bytes
bin	-inf	0
bin	1499	0
bin	1500	1137
bin	1501	0
scalar NetK.rte[0].queue[3] txBytes:count 548
attr interpolationmode none
attr title "transmitting packet byte length, count"
attr unit bytes
scalar NetK.rte[0].queue[3] txBytes:sum 822000
attr interpolationmode none
attr title "transmitting packet byte length, sum"
attr unit bytes
statistic NetK.rte[0].queue[3] txBytes:histogram
field count 548
field mean 1500
field stddev 0
field min 1500
field max 1500
field sum 822000
field sqrsum 1233000000
attr interpolationmode none
attr title "transmitting packet byte length, histogram"
attr unit bytes
bin	-inf	0
bin	1499	0
bin	1500	548
bin	1501	0
scalar NetK.rte[0].queue[3] busy:timeavg 0.0021914521369657
attr interpolationmode sample-hold
attr title "server busy state, timeavg"
scalar NetK.rte[0].queue[3] qlen:timeavg 0.0011559163392485
attr interpolationmode sample-hold
attr title "queue length, timeavg"
scalar NetK.rte[0].queue[3] qlen:max 7
attr interpolationmode sample-hold
attr title "queue length, max"
scalar NetK.rte[0].queue[3] drop:count 0
attr interpolationmode none
attr title "dropped packet byte length, count"
attr unit bytes
scalar NetK.rte[0].queue[3] drop:sum 0
attr interpolationmode none
attr title "dropped packet byte length, sum"
attr unit bytes
statistic NetK.rte[0].queue[4] "drop count"
field count 0
field mean nan
field stddev nan
field min nan
field max nan
field sum 0
field sqrsum 0
bin	-inf	0
bin	0	0
bin	1	0
scalar NetK.rte[0].queue[4] rxBytes:count 1147
attr interpolationmode none
attr title "received packet byte length, count"
attr unit bytes
scalar NetK.rte[0].queue[4] rxBytes:sum 1720500
attr interpolationmode none
attr title "received packet byte length, sum"
attr unit bytes
statistic NetK.rte[0].queue[4] rxBytes:histogram
field count 1147
field mean 1500
field stddev 0
field min 1500
field max 1500
field sum 1720500
field sqrsum 2580750000
attr interpolationmode none
attr title "received packet byte length, histogram"
attr unit bytes
bin	-inf	0
bin	1499	0
bin	1500	1147
bin	1501	0
scalar NetK.rte[0].queue[4] txBytes:count 1753
attr interpolationmode none
attr title "transmitting packet byte length, count"
attr unit bytes
scalar NetK.rte[0].queue[4] txBytes:sum 2629500
attr interpolationmode none
attr title "transmitting packet byte length, sum"
attr unit bytes
statistic NetK.rte[0].queue[4] txBytes:histogram
field count 1753
field mean 1500
field stddev 0
field min 1500
field max 1500
field sum 2629500
field sqrsum 3944250000
attr interpolationmode none
attr title "transmitting packet byte length, histogram"
attr unit bytes
bin	-inf	0
bin	1499	0
bin	1500	1753
bin	1501	0
scalar NetK.rte[0].queue[4] busy:timeavg 0.0070102474381406
attr interpolationmode sample-hold
attr title "server busy state, timeavg"
scalar NetK.rte[0].queue[4] qlen:timeavg 0.0035143885628593
attr interpolationmode sample-hold
attr title "queue length, timeavg"
scalar NetK.rte[0].queue[4] qlen:max 7
attr interpolationmode sample-hold
attr title "queue length, max"
scalar NetK.rte[0].queue[4] drop:count 0
attr interpolationmode none
attr title "dropped packet byte length, count"
attr unit bytes
scalar NetK.rte[0].queue[4] drop:sum 0
attr interpolationmode none
attr title "dropped packet byte length, sum"
attr unit bytes
statistic NetK.rte[0].queue[5] "drop count"
field count 0
field mean nan
field stddev nan
field min nan
field max nan
field sum 0
field sqrsum 0
bin	-inf	0
bin	0	0
bin	1	0
scalar NetK.rte[0].queue[5] rxBytes:count 1139
attr interpolationmode none
attr title "received packet byte length, count"
attr unit bytes
scalar NetK.rte[0].queue[5] rxBytes:sum 1708500
attr interpolationmode none
attr title "received packet byte length, sum"
attr unit bytes
statistic NetK.rte[0].queue[5] rxBytes:histogram
field count 1139
field mean 1500
field stddev 0
field min 1500
field max 1500
field sum 1708500
field sqrsum 2562750000
attr interpolationmode none
attr title "received packet byte length, histogram"
attr unit bytes
bin	-inf	0
bin	1499	0
bin	1500	1139
bin	1501	0
scalar NetK.rte[0].queue[5] txBytes:count 1474
attr interpolationmode none
attr title "transmitting packet byte length, count"
attr unit bytes
scalar NetK.rte[0].queue[5] txBytes:sum 2211000
attr interpolationmode none
attr title "transmitting packet byte length, sum"
attr unit bytes
statistic NetK.rte[0].queue[5] txBytes:histogram
field count 1474
field mean 1500
field stddev 0
field min 1500
field max 1500
field sum 2211000
field sqrsum 3316500000
attr interpolationmode none
attr title "transmitting packet byte length, histogram"
attr unit bytes
bin	-inf	0
bin	1499	0
bin	1500	1474
bin	1501	0
scalar NetK.rte[0].queue[5] busy:timeavg 0.005894526368408
attr interpolationmode sample-hold
attr title "server busy state, timeavg"
scalar NetK.rte[0].queue[5] qlen:timeavg 0.0017168374106473
attr interpolationmode sample-hold
attr title "queue length, timeavg"
scalar NetK.rte[0].queue[5] qlen:max 11
attr interpolationmode sample-hold
attr title "queue length, max"
scalar NetK.rte[0].queue[5] drop:count 0
attr interpolationmode none
attr title "dropped packet byte length, count"
attr unit bytes
scalar NetK.rte[0].queue[5] drop:sum 0
attr interpolationmode none
attr title "dropped packet byte length, sum"
attr unit bytes
scalar NetK.rte[1].app #sent 0
scalar NetK.rte[1].app #received 0
statistic NetK.rte[1].app "hop count"
field count 0
field mean nan
field stddev nan
field min nan
field max nan
field sum 0
field sqrsum 0
bin	-inf	0
bin	0	0
bin	1	0
scalar NetK.rte[1].app hopCount:mean nan
attr interpolationmode none
attr title "hop count of arrived packets, mean"
scalar NetK.rte[1].app hopCount:max nan
attr interpolationmode none
attr title "hop count of arrived packets, max"
scalar NetK.rte[1].app hopCount:count 0
attr interpolationmode none
attr title "hop count of arrived packets, count"
statistic NetK.rte[1].app hopCount:histogram
field count 0
field mean nan
field stddev nan
field min nan
field max nan
field sum 0
field sqrsum 0
attr interpolationmode none
attr title "hop count of arrived packets, histogram"
bin	-inf	0
bin	0	0
bin	1	0
scalar NetK.rte[1].app endToEndDelay:mean nan
attr interpolationmode none
attr title "end-to-end delay of arrived packets, mean"
attr unit s
scalar NetK.rte[1].app endToEndDelay:max nan
attr interpolationmode none
attr title "end-to-end delay of arrived packets, max"
attr unit s
scalar NetK.rte[1].app endToEndDelay:count 0
attr interpolationmode none
attr title "end-to-end delay of arrived packets, count"
attr unit s
scalar NetK.rte[1].routing "Terminal Messages dropped due to wrong prediction" 0
statistic NetK.rte[1].routing TopoLinkCounter:histogram
field count 0
field mean nan
field stddev nan
field min nan
field max nan
field sum 0
field sqrsum 0
attr interpolationmode none
attr title "Number of links enabled in Topology, histogram"
bin	-inf	0
bin	0	0
bin	1	0
scalar NetK.rte[1].routing TopoLinkCounter:mean nan
attr interpolationmode none
attr title "Number of links enabled in Topology, mean"
scalar NetK.rte[1].routing TopoLinkCounter:max nan
attr interpolationmode none
attr title "Number of links enabled in Topology, max"
scalar NetK.rte[1].routing TopoLinkCounter:count 0
attr interpolationmode none
attr title "Number of links enabled in Topology, count"
statistic NetK.rte[1].routing outputIf:histogram
field count 0
field mean nan
field stddev nan
field min nan
field max nan
field sum 0
field sqrsum 0
attr interpolationmode none
attr title "output interface for each routed packet, histogram"
bin	-inf	0
bin	0	0
bin	1	0
scalar NetK.rte[1].routing drop:count 0
attr interpolationmode none
attr title "dropped packet byte length, count"
attr unit bytes
scalar NetK.rte[1].routing drop:sum 0
attr interpolationmode none
attr title "dropped packet byte length, sum"
attr unit bytes
statistic NetK.rte[1].routing hopCount:histogram
field count 0
field mean nan
field stddev nan
field min nan
field max nan
field sum 0
field sqrsum 0
attr interpolationmode none
attr title "count number of hops for packet, histogram"
bin	-inf	0
bin	0	0
bin	1	0
scalar NetK.rte[1].routing hopCount:mean nan
attr interpolationmode none
attr title "count number of hops for packet, mean"
scalar NetK.rte[1].routing hopCount:max nan
attr interpolationmode none
attr title "count number of hops for packet, max"
scalar NetK.rte[1].routing hopCount:count 0
attr interpolationmode none
attr title "count number of hops for packet, count"
statistic NetK.rte[1].queue[0] "drop count"
field count 456
field mean 228.5
field stddev 131.78011989674
field min 1
field max 456
field sum 104196
field sqrsum 31710316
bin	-inf	0
bin	0	9
bin	10	10
bin	20	10
bin	30	10
bin	40	10
bin	50	10
bin	60	10
bin	70	10
bin	80	10
bin	90	10
bin	100	10
bin	110	10
bin	120	10
bin	130	10
bin	140	10
bin	150	10
bin	160	10
bin	170	10
bin	180	10
bin	190	10
bin	200	10
bin	210	10
bin	220	10
bin	230	10
bin	240	10
bin	250	10
bin	260	10
bin	270	10
bin	280	10
bin	290	10
bin	300	10
bin	310	10
bin	320	10
bin	330	10
bin	340	10
bin	350	10
bin	360	10
bin	370	10
bin	380	10
bin	390	10
bin	400	10
bin	410	10
bin	420	10
bin	430	10
bin	440	10
bin	450	7
bin	460	0
bin	470	0
bin	480	0
bin	490	0
bin	500	0
bin	510	0
bin	520	0
bin	530	0
bin	540	0
bin	550	0
bin	560	0
bin	570	0
scalar NetK.rte[1].queue[0] rxBytes:count 57421
attr interpolationmode none
attr title "received packet byte length, count"
attr unit bytes
scalar NetK.rte[1].queue[0] rxBytes:sum 86131500
attr interpolationmode none
attr title "received packet byte length, sum"
attr unit bytes
statistic NetK.rte[1].queue[0] rxBytes:histogram
field count 57421
field mean 1500
field stddev 0
field min 1500
field max 1500
field sum 86131500
field sqrsum 129197250000
attr interpolationmode none
attr title "received packet byte length, histogram"
attr unit bytes
bin	-inf	0
bin	1499	0
bin	1500	57421
bin	1501	0
scalar NetK.rte[1].queue[0] txBytes:count 59469
attr interpolationmode none
attr title "transmitting packet byte length, count"
attr unit bytes
scalar NetK.rte[1].queue[0] txBytes:sum 89203500
attr interpolationmode none
attr title "transmitting packet byte length, sum"
attr unit bytes
statistic NetK.rte[1].queue[0] txBytes:histogram
field count 59469
field mean 1500
field stddev 0
field min 1500
field max 1500
field sum 89203500
field sqrsum 133805250000
attr interpolationmode none
attr title "transmitting packet byte length, histogram"
attr unit bytes
bin	-inf	0
bin	1499	0
bin	1500	59469
bin	1501	0
scalar NetK.rte[1].queue[0] busy:timeavg 0.2378165458635
attr interpolationmode sample-hold
attr title "server busy state, timeavg"
scalar NetK.rte[1].queue[0] qlen:timeavg 0.56564249797874
attr interpolationmode sample-hold
attr title "queue length, timeavg"
scalar NetK.rte[1].queue[0] qlen:max 120
attr interpolationmode sample-hold
attr title "queue length, max"
scalar NetK.rte[1].queue[0] drop:count 456
attr interpolationmode none
attr title "dropped packet byte length, count"
attr unit bytes
scalar NetK.rte[1].queue[0] drop:sum 684000
attr interpolationmode none
attr title "dropped packet byte length, sum"
attr unit bytes
statistic NetK.rte[1].queue[1] "drop count"
field count 0
field mean nan
field stddev nan
field min nan
field max nan
field sum 0
field sqrsum 0
bin	-inf	0
bin	0	0
bin	1	0
scalar NetK.rte[1].queue[1] rxBytes:count 7355
attr interpolationmode none
attr title "received packet byte length, count"
attr unit bytes
scalar NetK.rte[1].queue[1] rxBytes:sum 11032500
attr interpolationmode none
attr title "received packet byte length, sum"
attr unit bytes
statistic NetK.rte[1].queue[1] rxBytes:histogram
field count 7355
field mean 1500
field stddev 0
field min 1500
field max 1500
field sum 11032500
field sqrsum 16548750000
attr interpolationmode none
attr title "received packet byte length, histogram"
attr unit bytes
bin	-inf	0
bin	1499	0
bin	1500	7355
bin	1501	0
scalar NetK.rte[1].queue[1] txBytes:count 771
attr interpolationmode none
attr title "transmitting packet byte length, count"
attr unit bytes
scalar NetK.rte[1].queue[1] txBytes:sum 1156500
attr interpolationmode none
attr title "transmitting packet byte length, sum"
attr unit bytes
statistic NetK.rte[1].queue[1] txBytes:histogram
field count 771
field mean 1500
field stddev 0
field min 1500
field max 1500
field sum 1156500
field sqrsum 1734750000
attr interpolationmode none
attr title "transmitting packet byte length, histogram"
attr unit bytes
bin	-inf	0
bin	1499	0
bin	1500	771
bin	1501	0
scalar NetK.rte[1].queue[1] busy:timeavg 0.0030832291927018
attr interpolationmode sample-hold
attr title "server busy state, timeavg"
scalar NetK.rte[1].queue[1] qlen:timeavg 0.00077334635007915
attr interpolationmode sample-hold
attr title "queue length, timeavg"
scalar NetK.rte[1].queue[1] qlen:max 6
attr interpolationmode sample-hold
attr title "queue length, max"
scalar NetK.rte[1].queue[1] drop:count 0
attr interpolationmode none
attr title "dropped packet byte length, count"
attr unit bytes
scalar NetK.rte[1].queue[1] drop:sum 0
attr interpolationmode none
attr title "dropped packet byte length, sum"
attr unit bytes
statistic NetK.rte[1].queue[2] "drop count"
field count 0
field mean nan
field stddev nan
field min nan
field max nan
field sum 0
field sqrsum 0
bin	-inf	0
bin	0	0
bin	1	0
scalar NetK.rte[1].queue[2] rxBytes:count 2463
attr interpolationmode none
attr title "received packet byte length, count"
attr unit bytes
scalar NetK.rte[1].queue[2] rxBytes:sum 3694500
attr interpolationmode none
attr title "received packet byte length, sum"
attr unit bytes
statistic NetK.rte[1].queue[2] rxBytes:histogram
field count 2463
field mean 1500
field stddev 0
field min 1500
field max 1500
field sum 3694500
field sqrsum 5541750000
attr interpolationmode none
attr title "received packet byte length, histogram"
attr unit bytes
bin	-inf	0
bin	1499	0
bin	1500	2463
bin	1501	0
scalar NetK.rte[1].queue[2] txBytes:count 1197
attr interpolationmode none
attr title "transmitting packet byte length, count"
attr unit bytes
scalar NetK.rte[1].queue[2] txBytes:sum 1795500
attr interpolationmode none
attr title "transmitting packet byte length, sum"
attr unit bytes
statistic NetK.rte[1].queue[2] txBytes:histogram
field count 1197
field mean 1500
field stddev 0
field min 1500
field max 1500
field sum 1795500
field sqrsum 2693250000
attr interpolationmode none
attr title "transmitting packet byte length, histogram"
attr unit bytes
bin	-inf	0
bin	1499	0
bin	1500	1197
bin	1501	0
scalar NetK.rte[1].queue[2] busy:timeavg 0.0047868032991752
attr interpolationmode sample-hold
attr title "server busy state, timeavg"
scalar NetK.rte[1].queue[2] qlen:timeavg 0.0014093201782888
attr interpolationmode sample-hold
attr title "queue length, timeavg"
scalar NetK.rte[1].queue[2] qlen:max 7
attr interpolationmode sample-hold
attr title "queue length, max"
scalar NetK.rte[1].queue[2] drop:count 0
attr interpolationmode none
attr title "dropped packet byte length, count"
attr unit bytes
scalar NetK.rte[1].queue[2] drop:sum 0
attr interpolationmode none
attr title "dropped packet byte length, sum"
attr unit bytes
statistic NetK.rte[1].queue[3] "drop count"
field count 0
field mean nan
field stddev nan
field min nan
field max nan
field sum 0
field sqrsum 0
bin	-inf	0
bin	0	0
bin	1	0
scalar NetK.rte[1].queue[3] rxBytes:count 668
attr interpolationmode none
attr title "received packet byte length, count"
attr unit bytes
scalar NetK.rte[1].queue[3] rxBytes:sum 1002000
attr interpolationmode none
attr title "received packet byte length, sum"
attr unit bytes
statistic NetK.rte[1].queue[3] rxBytes:histogram
field count 668
field mean 1500
field stddev 0
field min 1500
field max 1500
field sum 1002000
field sqrsum 1503000000
attr interpolationmode none
attr title "received packet byte length, histogram"
attr unit bytes
bin	-inf	0
bin	1499	0
bin	1500	668
bin	1501	0
scalar NetK.rte[1].queue[3] txBytes:count 1226
attr interpolationmode none
attr title "transmitting packet byte length, count"
attr unit bytes
scalar NetK.rte[1].queue[3] txBytes:sum 1839000
attr interpolationmode none
attr title "transmitting packet byte length, sum"
attr unit bytes
statistic NetK.rte[1].queue[3] txBytes:histogram
field count 1226
field mean 1500
field stddev 0
field min 1500
field max 1500
field sum 1839000
field sqrsum 2758500000
attr interpolationmode none
attr title "transmitting packet byte length, histogram"
attr unit bytes
bin	-inf	0
bin	1499	0
bin	1500	1226
bin	1501	0
scalar NetK.rte[1].queue[3] busy:timeavg 0.0049027743064235
attr interpolationmode sample-hold
attr title "server busy state, timeavg"
scalar NetK.rte[1].queue[3] qlen:timeavg 0.0014306579388486
attr interpolationmode sample-hold
attr title "queue length, timeavg"
scalar NetK.rte[1].queue[3] qlen:max 7
attr interpolationmode sample-hold
attr title "queue length, max"
scalar NetK.rte[1].queue[3] drop:count 0
attr interpolationmode none
attr title "dropped packet byte length, count"
attr unit bytes
scalar NetK.rte[1].queue[3] drop:sum 0
attr interpolationmode none
attr title "dropped packet byte length, sum"
attr unit bytes
statistic NetK.rte[1].queue[4] "drop count"
field count 0
field mean nan
field stddev nan
field min nan
field max nan
field sum 0
field sqrsum 0
bin	-inf	0
bin	0	0
bin	1	0
scalar NetK.rte[1].queue[4] rxBytes:count 1089
attr interpolationmode none
attr title "received packet byte length, count"
attr unit bytes
scalar NetK.rte[1].queue[4] rxBytes:sum 1633500
attr interpolationmode none
attr title "received packet byte length, sum"
attr unit bytes
statistic NetK.rte[1].queue[4] rxBytes:histogram
field count 1089
field mean 1500
field stddev 0
field min 1500
field max 1500
field sum 1633500
field sqrsum 2450250000
attr interpolationmode none
attr title "received packet byte length, histogram"
attr unit bytes
bin	-inf	0
bin	1499	0
bin	1500	1089
bin	1501	0
scalar NetK.rte[1].queue[4] txBytes:count 1949
attr interpolationmode none
attr title "transmitting packet byte length, count"
attr unit bytes
scalar NetK.rte[1].queue[4] txBytes:sum 2923500
attr interpolationmode none
attr title "transmitting packet byte length, sum"
attr unit bytes
statistic NetK.rte[1].queue[4] txBytes:histogram
field count 1949
field mean 1500
field stddev 0
field min 1500
field max 1500
field sum 2923500
field sqrsum 4385250000
attr interpolationmode none
attr title "transmitting packet byte length, histogram"
attr unit bytes
bin	-inf	0
bin	1499	0
bin	1500	1949
bin	1501	0
scalar NetK.rte[1].queue[4] busy:timeavg 0.0077940514871282
attr interpolationmode sample-hold
attr title "server busy state, timeavg"
scalar NetK.rte[1].queue[4] qlen:timeavg 0.0041024972173623
attr interpolationmode sample-hold
attr title "queue length, timeavg"
scalar NetK.rte[1].queue[4] qlen:max 7
attr interpolationmode sample-hold
attr title "queue length, max"
scalar NetK.rte[1].queue[4] drop:count 0
attr interpolationmode none
attr title "dropped packet byte length, count"
attr unit bytes
scalar NetK.rte[1].queue[4] drop:sum 0
attr interpolationmode none
attr title "dropped packet byte length, sum"
attr unit bytes
statistic NetK.rte[1].queue[5] "drop count"
field count 0
field mean nan
field stddev nan
field min nan
field max nan
field sum 0
field sqrsum 0
bin	-inf	0
bin	0	0
bin	1	0
scalar NetK.rte[1].queue[5] rxBytes:count 832
attr interpolationmode none
attr title "received packet byte length, count"
attr unit bytes
scalar NetK.rte[1].queue[5] rxBytes:sum 1248000
attr interpolationmode none
attr title "received packet byte length, sum"
attr unit bytes
statistic NetK.rte[1].queue[5] rxBytes:histogram
field count 832
field mean 1500
field stddev 0
field min 1500
field max 1500
field sum 1248000
field sqrsum 1872000000
attr interpolationmode none
attr title "received packet byte length, histogram"
attr unit bytes
bin	-inf	0
bin	1499	0
bin	1500	832
bin	1501	0
scalar NetK.rte[1].queue[5] txBytes:count 1017
attr interpolationmode none
attr title "transmitting packet byte length, count"
attr unit bytes
scalar NetK.rte[1].queue[5] txBytes:sum 1525500
attr interpolationmode none
attr title "transmitting packet byte length, sum"
attr unit bytes
statistic NetK.rte[1].queue[5] txBytes:histogram
field count 1017
field mean 1500
field stddev 0
field min 1500
field max 1500
field sum 1525500
field sqrsum 2288250000
attr interpolationmode none
attr title "transmitting packet byte length, histogram"
attr unit bytes
bin	-inf	0
bin	1499	0
bin	1500	1017
bin	1501	0
scalar NetK.rte[1].queue[5] busy:timeavg 0.0040669832541865
attr interpolationmode sample-hold
attr title "server busy state, timeavg"
scalar NetK.rte[1].queue[5] qlen:timeavg 0.0013363865733567
attr interpolationmode sample-hold
attr title "queue length, timeavg"
scalar NetK.rte[1].queue[5] qlen:max 7
attr interpolationmode sample-hold
attr title "queue length, max"
scalar NetK.rte[1].queue[5] drop:count 0
attr interpolationmode none
attr title "dropped packet byte length, count"
attr unit bytes
scalar NetK.rte[1].queue[5] drop:sum 0
attr interpolationmode none
attr title "dropped packet byte length, sum"
attr unit bytes
scalar NetK.rte[2].app #sent 0
scalar NetK.rte[2].app #received 0
statistic NetK.rte[2].app "hop count"
field count 0
field mean nan
field stddev nan
field min nan
field max nan
field sum 0
field sqrsum 0
bin	-inf	0
bin	0	0
bin	1	0
scalar NetK.rte[2].app hopCount:mean nan
attr interpolationmode none
attr title "hop count of arrived packets, mean"
scalar NetK.rte[2].app hopCount:max nan
attr interpolationmode none
attr title "hop count of arrived packets, max"
scalar NetK.rte[2].app hopCount:count 0
attr interpolationmode none
attr title "hop count of arrived packets, count"
statistic NetK.rte[2].app hopCount:histogram
field count 0
field mean nan
field stddev nan
field min nan
field max nan
field sum 0
field sqrsum 0
attr interpolationmode none
attr title "hop count of arrived packets, histogram"
bin	-inf	0
bin	0	0
bin	1	0
scalar NetK.rte[2].app endToEndDelay:mean nan
attr interpolationmode none
attr title "end-to-end delay of arrived packets, mean"
attr unit s
scalar NetK.rte[2].app endToEndDelay:max nan
attr interpolationmode none
attr title "end-to-end delay of arrived packets, max"
attr unit s
scalar NetK.rte[2].app endToEndDelay:count 0
attr interpolationmode none
attr title "end-to-end delay of arrived packets, count"
attr unit s
scalar NetK.rte[2].routing "Terminal Messages dropped due to wrong prediction" 11
statistic NetK.rte[2].routing TopoLinkCounter:histogram
field count 0
field mean nan
field stddev nan
field min nan
field max nan
field sum 0
field sqrsum 0
attr interpolationmode none
attr title "Number of links enabled in Topology, histogram"
bin	-inf	0
bin	0	0
bin	1	0
scalar NetK.rte[2].routing TopoLinkCounter:mean nan
attr interpolationmode none
attr title "Number of links enabled in Topology, mean"
scalar NetK.rte[2].routing TopoLinkCounter:max nan
attr interpolationmode none
attr title "Number of links enabled in Topology, max"
scalar NetK.rte[2].routing TopoLinkCounter:count 0
attr interpolationmode none
attr title "Number of links enabled in Topology, count"
statistic NetK.rte[2].routing outputIf:histogram
field count 0
field mean nan
field stddev nan
field min nan
field max nan
field sum 0
field sqrsum 0
attr interpolationmode none
attr title "output interface for each routed packet, histogram"
bin	-inf	0
bin	0	0
bin	1	0
scalar NetK.rte[2].routing drop:count 0
attr interpolationmode none
attr title "dropped packet byte length, count"
attr unit bytes
scalar NetK.rte[2].routing drop:sum 0
attr interpolationmode none
attr title "dropped packet byte length, sum"
attr unit bytes
statistic NetK.rte[2].routing hopCount:histogram
field count 0
field mean nan
field stddev nan
field min nan
field max nan
field sum 0
field sqrsum 0
attr interpolationmode none
attr title "count number of hops for packet, histogram"
bin	-inf	0
bin	0	0
bin	1	0
scalar NetK.rte[2].routing hopCount:mean nan
attr interpolationmode none
attr title "count number of hops for packet, mean"
scalar NetK.rte[2].routing hopCount:max nan
attr interpolationmode none
attr title "count number of hops for packet, max"
scalar NetK.rte[2].routing hopCount:count 0
attr interpolationmode none
attr title "count number of hops for packet, count"
statistic NetK.rte[2].queue[0] "drop count"
field count 0
field mean nan
field stddev nan
field min nan
field max nan
field sum 0
field sqrsum 0
bin	-inf	0
bin	0	0
bin	1	0
scalar NetK.rte[2].queue[0] rxBytes:count 771
attr interpolationmode none
attr title "received packet byte length, count"
attr unit bytes
scalar NetK.rte[2].queue[0] rxBytes:sum 1156500
attr interpolationmode none
attr title "received packet byte length, sum"
attr unit bytes
statistic NetK.rte[2].queue[0] rxBytes:histogram
field count 771
field mean 1500
field stddev 0
field min 1500
field max 1500
field sum 1156500
field sqrsum 1734750000
attr interpolationmode none
attr title "received packet byte length, histogram"
attr unit bytes
bin	-inf	0
bin	1499	0
bin	1500	771
bin	1501	0
scalar NetK.rte[2].queue[0] txBytes:count 7355
attr interpolationmode none
attr title "transmitting packet byte length, count"
attr unit bytes
scalar NetK.rte[2].queue[0] txBytes:sum 11032500
attr interpolationmode none
attr title "transmitting packet byte length, sum"
attr unit bytes
statistic NetK.rte[2].queue[0] txBytes:histogram
field count 7355
field mean 1500
field stddev 0
field min 1500
field max 1500
field sum 11032500
field sqrsum 16548750000
attr interpolationmode none
attr title "transmitting packet byte length, histogram"
attr unit bytes
bin	-inf	0
bin	1499	0
bin	1500	7355
bin	1501	0
scalar NetK.rte[2].queue[0] busy:timeavg 0.02941264683829
attr interpolationmode sample-hold
attr title "server busy state, timeavg"
scalar NetK.rte[2].queue[0] qlen:timeavg 0.0016099983137549
attr interpolationmode sample-hold
attr title "queue length, timeavg"
scalar NetK.rte[2].queue[0] qlen:max 5
attr interpolationmode sample-hold
attr title "queue length, max"
scalar NetK.rte[2].queue[0] drop:count 0
attr interpolationmode none
attr title "dropped packet byte length, count"
attr unit bytes
scalar NetK.rte[2].queue[0] drop:sum 0
attr interpolationmode none
attr title "dropped packet byte length, sum"
attr unit bytes
statistic NetK.rte[2].queue[1] "drop count"
field count 0
field mean nan
field stddev nan
field min nan
field max nan
field sum 0
field sqrsum 0
bin	-inf	0
bin	0	0
bin	1	0
scalar NetK.rte[2].queue[1] rxBytes:count 4154
attr interpolationmode none
attr title "received packet byte length, count"
attr unit bytes
scalar NetK.rte[2].queue[1] rxBytes:sum 6231000
attr interpolationmode none
attr title "received packet byte length, sum"
attr unit bytes
statistic NetK.rte[2].queue[1] rxBytes:histogram
field count 4154
field mean 1500
field stddev 0
field min 1500
field max 1500
field sum 6231000
field sqrsum 9346500000
attr interpolationmode none
attr title "received packet byte length, histogram"
attr unit bytes
bin	-inf	0
bin	1499	0
bin	1500	4154
bin	1501	0
scalar NetK.rte[2].queue[1] txBytes:count 722
attr interpolationmode none
attr title "transmitting packet byte length, count"
attr unit bytes
scalar NetK.rte[2].queue[1] txBytes:sum 1083000
attr interpolationmode none
attr title "transmitting packet byte length, sum"
attr unit bytes
statistic NetK.rte[2].queue[1] txBytes:histogram
field count 722
field mean 1500
field stddev 0
field min 1500
field max 1500
field sum 1083000
field sqrsum 1624500000
attr interpolationmode none
attr title "transmitting packet byte length, histogram"
attr unit bytes
bin	-inf	0
bin	1499	0
bin	1500	722
bin	1501	0
scalar NetK.rte[2].queue[1] busy:timeavg 0.0028872781804549
attr interpolationmode sample-hold
attr title "server busy state, timeavg"
scalar NetK.rte[2].queue[1] qlen:timeavg 0.00084189924352245
attr interpolationmode sample-hold
attr title "queue length, timeavg"
scalar NetK.rte[2].queue[1] qlen:max 5
attr interpolationmode sample-hold
attr title "queue length, max"
scalar NetK.rte[2].queue[1] drop:count 0
attr interpolationmode none
attr title "dropped packet byte length, count"
attr unit bytes
scalar NetK.rte[2].queue[1] drop:sum 0
attr interpolationmode none
attr title "dropped packet byte length, sum"
attr unit bytes
statistic NetK.rte[2].queue[2] "drop count"
field count 0
field mean nan
field stddev nan
field min nan
field max nan
field sum 0
field sqrsum 0
bin	-inf	0
bin	0	0
bin	1	0
scalar NetK.rte[2].queue[2] rxBytes:count 7131
attr interpolationmode none
attr title "received packet byte length, count"
attr unit bytes
scalar NetK.rte[2].queue[2] rxBytes:sum 10696500
attr interpolationmode none
attr title "received packet byte length, sum"
attr unit bytes
statistic NetK.rte[2].queue[2] rxBytes:histogram
field count 7131
field mean 1500
field stddev 0
field min 1500
field max 1500
field sum 10696500
field sqrsum 16044750000
attr interpolationmode none
attr title "received packet byte length, histogram"
attr unit bytes
bin	-inf	0
bin	1499	0
bin	1500	7131
bin	1501	0
scalar NetK.rte[2].queue[2] txBytes:count 3806
attr interpolationmode none
attr title "transmitting packet byte length, count"
attr unit bytes
scalar NetK.rte[2].queue[2] txBytes:sum 5709000
attr interpolationmode none
attr title "transmitting packet byte length, sum"
attr unit bytes
statistic NetK.rte[2].queue[2] txBytes:histogram
field count 3806
field mean 1500
field stddev 0
field min 1500
field max 1500
field sum 5709000
field sqrsum 8563500000
attr interpolationmode none
attr title "transmitting packet byte length, histogram"
attr unit bytes
bin	-inf	0
bin	1499	0
bin	1500	3806
bin	1501	0
scalar NetK.rte[2].queue[2] busy:timeavg 0.015220194951262
attr interpolationmode sample-hold
attr title "server busy state, timeavg"
scalar NetK.rte[2].queue[2] qlen:timeavg 0.015607864182287
attr interpolationmode sample-hold
attr title "queue length, timeavg"
scalar NetK.rte[2].queue[2] qlen:max 7
attr interpolationmode sample-hold
attr title "queue length, max"
scalar NetK.rte[2].queue[2] drop:count 0
attr interpolationmode none
attr title "dropped packet byte length, count"
attr unit bytes
scalar NetK.rte[2].queue[2] drop:sum 0
attr interpolationmode none
attr title "dropped packet byte length, sum"
attr unit bytes
statistic NetK.rte[2].queue[3] "drop count"
field count 0
field mean nan
field stddev nan
field min nan
field max nan
field sum 0
field sqrsum 0
bin	-inf	0
bin	0	0
bin	1	0
scalar NetK.rte[2].queue[3] rxBytes:count 2062
attr interpolationmode none
attr title "received packet byte length, count"
attr unit bytes
scalar NetK.rte[2].queue[3] rxBytes:sum 3093000
attr interpolationmode none
attr title "received packet byte length, sum"
attr unit bytes
statistic NetK.rte[2].queue[3] rxBytes:histogram
field count 2062
field mean 1500
field stddev 0
field min 1500
field max 1500
field sum 3093000
field sqrsum 4639500000
attr interpolationmode none
attr title "received packet byte length, histogram"
attr unit bytes
bin	-inf	0
bin	1499	0
bin	1500	2062
bin	1501	0
scalar NetK.rte[2].queue[3] txBytes:count 1117
attr interpolationmode none
attr title "transmitting packet byte length, count"
attr unit bytes
scalar NetK.rte[2].queue[3] txBytes:sum 1675500
attr interpolationmode none
attr title "transmitting packet byte length, sum"
attr unit bytes
statistic NetK.rte[2].queue[3] txBytes:histogram
field count 1117
field mean 1500
field stddev 0
field min 1500
field max 1500
field sum 1675500
field sqrsum 2513250000
attr interpolationmode none
attr title "transmitting packet byte length, histogram"
attr unit bytes
bin	-inf	0
bin	1499	0
bin	1500	1117
bin	1501	0
scalar NetK.rte[2].queue[3] busy:timeavg 0.0044668832791802
attr interpolationmode sample-hold
attr title "server busy state, timeavg"
scalar NetK.rte[2].queue[3] qlen:timeavg 0.00071327893359993
attr interpolationmode sample-hold
attr title "queue length, timeavg"
scalar NetK.rte[2].queue[3] qlen:max 4
attr interpolationmode sample-hold
attr title "queue length, max"
scalar NetK.rte[2].queue[3] drop:count 0
attr interpolationmode none
attr title "dropped packet byte length, count"
attr unit bytes
scalar NetK.rte[2].queue[3] drop:sum 0
attr interpolationmode none
attr title "dropped packet byte length, sum"
attr unit bytes
statistic NetK.rte[2].queue[4] "drop count"
field count 0
field mean nan
field stddev nan
field min nan
field max nan
field sum 0
field sqrsum 0
bin	-inf	0
bin	0	0
bin	1	0
scalar NetK.rte[2].queue[4] rxBytes:count 1181
attr interpolationmode none
attr title "received packet byte length, count"
attr unit bytes
scalar NetK.rte[2].queue[4] rxBytes:sum 1771500
attr interpolationmode none
attr title "received packet byte length, sum"
attr unit bytes
statistic NetK.rte[2].queue[4] rxBytes:histogram
field count 1181
field mean 1500
field stddev 0
field min 1500
field max 1500
field sum 1771500
field sqrsum 2657250000
attr interpolationmode none
attr title "received packet byte length, histogram"
attr unit bytes
bin	-inf	0
bin	1499	0
bin	1500	1181
bin	1501	0
scalar NetK.rte[2].queue[4] txBytes:count 1549
attr interpolationmode none
attr title "transmitting packet byte length, count"
attr unit bytes
scalar NetK.rte[2].queue[4] txBytes:sum 2323500
attr interpolationmode none
attr title "transmitting packet byte length, sum"
attr unit bytes
statistic NetK.rte[2].queue[4] txBytes:histogram
field count 1549
field mean 1500
field stddev 0
field min 1500
field max 1500
field sum 2323500
field sqrsum 3485250000
attr interpolationmode none
attr title "transmitting packet byte length, histogram"
attr unit bytes
bin	-inf	0
bin	1499	0
bin	1500	1549
bin	1501	0
scalar NetK.rte[2].queue[4] busy:timeavg 0.0061944513871534
attr interpolationmode sample-hold
attr title "server busy state, timeavg"
scalar NetK.rte[2].queue[4] qlen:timeavg 0.0011396852320253
attr interpolationmode sample-hold
attr title "queue length, timeavg"
scalar NetK.rte[2].queue[4] qlen:max 7
attr interpolationmode sample-hold
attr title "queue length, max"
scalar NetK.rte[2].queue[4] drop:count 0
attr interpolationmode none
attr title "dropped packet byte length, count"
attr unit bytes
scalar NetK.rte[2].queue[4] drop:sum 0
attr interpolationmode none
attr title "dropped packet byte length, sum"
attr unit bytes
statistic NetK.rte[2].queue[5] "drop count"
field count 0
field mean nan
field stddev nan
field min nan
field max nan
field sum 0
field sqrsum 0
bin	-inf	0
bin	0	0
bin	1	0
scalar NetK.rte[2].queue[5] rxBytes:count 2235
attr interpolationmode none
attr title "received packet byte length, count"
attr unit bytes
scalar NetK.rte[2].queue[5] rxBytes:sum 3352500
attr interpolationmode none
attr title "received packet byte length, sum"
attr unit bytes
statistic NetK.rte[2].queue[5] rxBytes:histogram
field count 2235
field mean 1500
field stddev 0
field min 1500
field max 1500
field sum 3352500
field sqrsum 5028750000
attr interpolationmode none
attr title "received packet byte length, histogram"
attr unit bytes
bin	-inf	0
bin	1499	0
bin	1500	2235
bin	1501	0
scalar NetK.rte[2].queue[5] txBytes:count 3089
attr interpolationmode none
attr title "transmitting packet byte length, count"
attr unit bytes
scalar NetK.rte[2].queue[5] txBytes:sum 4633500
attr interpolationmode none
attr title "transmitting packet byte length, sum"
attr unit bytes
statistic NetK.rte[2].queue[5] txBytes:histogram
field count 3089
field mean 1500
field stddev 0
field min 1500
field max 1500
field sum 4633500
field sqrsum 6950250000
attr interpolationmode none
attr title "transmitting packet byte length, histogram"
attr unit bytes
bin	-inf	0
bin	1499	0
bin	1500	3089
bin	1501	0
scalar NetK.rte[2].queue[5] busy:timeavg 0.012352911772057
attr interpolationmode sample-hold
attr title "server busy state, timeavg"
scalar NetK.rte[2].queue[5] qlen:timeavg 0.0032707304173956
attr interpolationmode sample-hold
attr title "queue length, timeavg"
scalar NetK.rte[2].queue[5] qlen:max 4
attr interpolationmode sample-hold
attr title "queue length, max"
scalar NetK.rte[2].queue[5] drop:count 0
attr interpolationmode none
attr title "dropped packet byte length, count"
attr unit bytes
scalar NetK.rte[2].queue[5] drop:sum 0
attr interpolationmode none
attr title "dropped packet byte length, sum"
attr unit bytes
scalar NetK.rte[3].app #sent -1.0620964752002e+308
scalar NetK.rte[3].app #received -1.0620956183739e+308
statistic NetK.rte[3].app "hop count"
field count 0
field mean nan
field stddev nan
field min nan
field max nan
field sum 0
field sqrsum 0
bin	-inf	0
bin	0	0
bin	1	0
scalar NetK.rte[3].app hopCount:mean nan
attr interpolationmode none
attr title "hop count of arrived packets, mean"
scalar NetK.rte[3].app hopCount:max nan
attr interpolationmode none
attr title "hop count of arrived packets, max"
scalar NetK.rte[3].app hopCount:count 0
attr interpolationmode none
attr title "hop count of arrived packets, count"
statistic NetK.rte[3].app hopCount:histogram
field count 0
field mean nan
field stddev nan
field min nan
field max nan
field sum 0
field sqrsum 0
attr interpolationmode none
attr title "hop count of arrived packets, histogram"
bin	-inf	0
bin	0	0
bin	1	0
scalar NetK.rte[3].app endToEndDelay:mean nan
attr interpolationmode none
attr title "end-to-end delay of arrived packets, mean"
attr unit s
scalar NetK.rte[3].app endToEndDelay:max nan
attr interpolationmode none
attr title "end-to-end delay of arrived packets, max"
attr unit s
scalar NetK.rte[3].app endToEndDelay:count 0
attr interpolationmode none
attr title "end-to-end delay of arrived packets, count"
attr unit s
scalar NetK.rte[3].routing "Terminal Messages dropped due to wrong prediction" 2
statistic NetK.rte[3].routing TopoLinkCounter:histogram
field count 0
field mean nan
field stddev nan
field min nan
field max nan
field sum 0
field sqrsum 0
attr interpolationmode none
attr title "Number of links enabled in Topology, histogram"
bin	-inf	0
bin	0	0
bin	1	0
scalar NetK.rte[3].routing TopoLinkCounter:mean nan
attr interpolationmode none
attr title "Number of links enabled in Topology, mean"
scalar NetK.rte[3].routing TopoLinkCounter:max nan
attr interpolationmode none
attr title "Number of links enabled in Topology, max"
scalar NetK.rte[3].routing TopoLinkCounter:count 0
attr interpolationmode none
attr title "Number of links enabled in Topology, count"
statistic NetK.rte[3].routing outputIf:histogram
field count 0
field mean nan
field stddev nan
field min nan
field max nan
field sum 0
field sqrsum 0
attr interpolationmode none
attr title "output interface for each routed packet, histogram"
bin	-inf	0
bin	0	0
bin	1	0
scalar NetK.rte[3].routing drop:count 0
attr interpolationmode none
attr title "dropped packet byte length, count"
attr unit bytes
scalar NetK.rte[3].routing drop:sum 0
attr interpolationmode none
attr title "dropped packet byte length, sum"
attr unit bytes
statistic NetK.rte[3].routing hopCount:histogram
field count 0
field mean nan
field stddev nan
field min nan
field max nan
field sum 0
field sqrsum 0
attr interpolationmode none
attr title "count number of hops for packet, histogram"
bin	-inf	0
bin	0	0
bin	1	0
scalar NetK.rte[3].routing hopCount:mean nan
attr interpolationmode none
attr title "count number of hops for packet, mean"
scalar NetK.rte[3].routing hopCount:max nan
attr interpolationmode none
attr title "count number of hops for packet, max"
scalar NetK.rte[3].routing hopCount:count 0
attr interpolationmode none
attr title "count number of hops for packet, count"
statistic NetK.rte[3].queue[0] "drop count"
field count 0
field mean nan
field stddev nan
field min nan
field max nan
field sum 0
field sqrsum 0
bin	-inf	0
bin	0	0
bin	1	0
scalar NetK.rte[3].queue[0] rxBytes:count 722
attr interpolationmode none
attr title "received packet byte length, count"
attr unit bytes
scalar NetK.rte[3].queue[0] rxBytes:sum 1083000
attr interpolationmode none
attr title "received packet byte length, sum"
attr unit bytes
statistic NetK.rte[3].queue[0] rxBytes:histogram
field count 722
field mean 1500
field stddev 0
field min 1500
field max 1500
field sum 1083000
field sqrsum 1624500000
attr interpolationmode none
attr title "received packet byte length, histogram"
attr unit bytes
bin	-inf	0
bin	1499	0
bin	1500	722
bin	1501	0
scalar NetK.rte[3].queue[0] txBytes:count 4154
attr interpolationmode none
attr title "transmitting packet byte length, count"
attr unit bytes
scalar NetK.rte[3].queue[0] txBytes:sum 6231000
attr interpolationmode none
attr title "transmitting packet byte length, sum"
attr unit bytes
statistic NetK.rte[3].queue[0] txBytes:histogram
field count 4154
field mean 1500
field stddev 0
field min 1500
field max 1500
field sum 6231000
field sqrsum 9346500000
attr interpolationmode none
attr title "transmitting packet byte length, histogram"
attr unit bytes
bin	-inf	0
bin	1499	0
bin	1500	4154
bin	1501	0
scalar NetK.rte[3].queue[0] busy:timeavg 0.01661184703824
attr interpolationmode sample-hold
attr title "server busy state, timeavg"
scalar NetK.rte[3].queue[0] qlen:timeavg 0.0020999808314588
attr interpolationmode sample-hold
attr title "queue length, timeavg"
scalar NetK.rte[3].queue[0] qlen:max 9
attr interpolationmode sample-hold
attr title "queue length, max"
scalar NetK.rte[3].queue[0] drop:count 0
attr interpolationmode none
attr title "dropped packet byte length, count"
attr unit bytes
scalar NetK.rte[3].queue[0] drop:sum 0
attr interpolationmode none
attr title "dropped packet byte length, sum"
attr unit bytes
statistic NetK.rte[3].queue[1] "drop count"
field count 0
field mean nan
field stddev nan
field min nan
field max nan
field sum 0
field sqrsum 0
bin	-inf	0
bin	0	0
bin	1	0
scalar NetK.rte[3].queue[1] rxBytes:count 3403
attr interpolationmode none
attr title "received packet byte length, count"
attr unit bytes
scalar NetK.rte[3].queue[1] rxBytes:sum 5104500
attr interpolationmode none
attr title "received packet byte length, sum"
attr unit bytes
statistic NetK.rte[3].queue[1] rxBytes:histogram
field count 3403
field mean 1500
field stddev 0
field min 1500
field max 1500
field sum 5104500
field sqrsum 7656750000
attr interpolationmode none
attr title "received packet byte length, histogram"
attr unit bytes
bin	-inf	0
bin	1499	0
bin	1500	3403
bin	1501	0
scalar NetK.rte[3].queue[1] txBytes:count 1636
attr interpolationmode none
attr title "transmitting packet byte length, count"
attr unit bytes
scalar NetK.rte[3].queue[1] txBytes:sum 2454000
attr interpolationmode none
attr title "transmitting packet byte length, sum"
attr unit bytes
statistic NetK.rte[3].queue[1] txBytes:histogram
field count 1636
field mean 1500
field stddev 0
field min 1500
field max 1500
field sum 2454000
field sqrsum 3681000000
attr interpolationmode none
attr title "transmitting packet byte length, histogram"
attr unit bytes
bin	-inf	0
bin	1499	0
bin	1500	1636
bin	1501	0
scalar NetK.rte[3].queue[1] busy:timeavg 0.0065423644088979
attr interpolationmode sample-hold
attr title "server busy state, timeavg"
scalar NetK.rte[3].queue[1] qlen:timeavg 0.0022151738681996
attr interpolationmode sample-hold
attr title "queue length, timeavg"
scalar NetK.rte[3].queue[1] qlen:max 9
attr interpolationmode sample-hold
attr title "queue length, max"
scalar NetK.rte[3].queue[1] drop:count 0
attr interpolationmode none
attr title "dropped packet byte length, count"
attr unit bytes
scalar NetK.rte[3].queue[1] drop:sum 0
attr interpolationmode none
attr title "dropped packet byte length, sum"
attr unit bytes
statistic NetK.rte[3].queue[2] "drop count"
field count 0
field mean nan
field stddev nan
field min nan
field max nan
field sum 0
field sqrsum 0
bin	-inf	0
bin	0	0
bin	1	0
scalar NetK.rte[3].queue[2] rxBytes:count 4481
attr interpolationmode none
attr title "received packet byte length, count"
attr unit bytes
scalar NetK.rte[3].queue[2] rxBytes:sum 6721500
attr interpolationmode none
attr title "received packet byte length, sum"
attr unit bytes
statistic NetK.rte[3].queue[2] rxBytes:histogram
field count 4481
field mean 1500
field stddev 0
field min 1500
field max 1500
field sum 6721500
field sqrsum 10082250000
attr interpolationmode none
attr title "received packet byte length, histogram"
attr unit bytes
bin	-inf	0
bin	1499	0
bin	1500	4481
bin	1501	0
scalar NetK.rte[3].queue[2] txBytes:count 1458
attr interpolationmode none
attr title "transmitting packet byte length, count"
attr unit bytes
scalar NetK.rte[3].queue[2] txBytes:sum 2187000
attr interpolationmode none
attr title "transmitting packet byte length, sum"
attr unit bytes
statistic NetK.rte[3].queue[2] txBytes:histogram
field count 1458
field mean 1500
field stddev 0
field min 1500
field max 1500
field sum 2187000
field sqrsum 3280500000
attr interpolationmode none
attr title "transmitting packet byte length, histogram"
attr unit bytes
bin	-inf	0
bin	1499	0
bin	1500	1458
bin	1501	0
scalar NetK.rte[3].queue[2] busy:timeavg 0.005830542364409
attr interpolationmode sample-hold
attr title "server busy state, timeavg"
scalar NetK.rte[3].queue[2] qlen:timeavg 0.0033663432375239
attr interpolationmode sample-hold
attr title "queue length, timeavg"
scalar NetK.rte[3].queue[2] qlen:max 9
attr interpolationmode sample-hold
attr title "queue length, max"
scalar NetK.rte[3].queue[2] drop:count 0
attr interpolationmode none
attr title "dropped packet byte length, count"
attr unit bytes
scalar NetK.rte[3].queue[2] drop:sum 0
attr interpolationmode none
attr title "dropped packet byte length, sum"
attr unit bytes
statistic NetK.rte[3].queue[3] "drop count"
field count 0
field mean nan
field stddev nan
field min nan
field max nan
field sum 0
field sqrsum 0
bin	-inf	0
bin	0	0
bin	1	0
scalar NetK.rte[3].queue[3] rxBytes:count 7905
attr interpolationmode none
attr title "received packet byte length, count"
attr unit bytes
scalar NetK.rte[3].queue[3] rxBytes:sum 11857500
attr interpolationmode none
attr title "received packet byte length, sum"
attr unit bytes
statistic NetK.rte[3].queue[3] rxBytes:histogram
field count 7905
field mean 1500
field stddev 0
field min 1500
field max 1500
field sum 11857500
field sqrsum 17786250000
attr interpolationmode none
attr title "received packet byte length, histogram"
attr unit bytes
bin	-inf	0
bin	1499	0
bin	1500	7905
bin	1501	0
scalar NetK.rte[3].queue[3] txBytes:count 9039
attr interpolationmode none
attr title "transmitting packet byte length, count"
attr unit bytes
scalar NetK.rte[3].queue[3] txBytes:sum 13558500
attr interpolationmode none
attr title "transmitting packet byte length, sum"
attr unit bytes
statistic NetK.rte[3].queue[3] txBytes:histogram
field count 9039
field mean 1500
field stddev 0
field min 1500
field max 1500
field sum 13558500
field sqrsum 20337750000
attr interpolationmode none
attr title "transmitting packet byte length, histogram"
attr unit bytes
bin	-inf	0
bin	1499	0
bin	1500	9039
bin	1501	0
scalar NetK.rte[3].queue[3] busy:timeavg 0.036146963259186
attr interpolationmode sample-hold
attr title "server busy state, timeavg"
scalar NetK.rte[3].queue[3] qlen:timeavg 0.013672966175123
attr interpolationmode sample-hold
attr title "queue length, timeavg"
scalar NetK.rte[3].queue[3] qlen:max 12
attr interpolationmode sample-hold
attr title "queue length, max"
scalar NetK.rte[3].queue[3] drop:count 0
attr interpolationmode none
attr title "dropped packet byte length, count"
attr unit bytes
scalar NetK.rte[3].queue[3] drop:sum 0
attr interpolationmode none
attr title "dropped packet byte length, sum"
attr unit bytes
statistic NetK.rte[3].queue[4] "drop count"
field count 0
field mean nan
field stddev nan
field min nan
field max nan
field sum 0
field sqrsum 0
bin	-inf	0
bin	0	0
bin	1	0
scalar NetK.rte[3].queue[4] rxBytes:count 1325
attr interpolationmode none
attr title "received packet byte length, count"
attr unit bytes
scalar NetK.rte[3].queue[4] rxBytes:sum 1987500
attr interpolationmode none
attr title "received packet byte length, sum"
attr unit bytes
statistic NetK.rte[3].queue[4] rxBytes:histogram
field count 1325
field mean 1500
field stddev 0
field min 1500
field max 1500
field sum 1987500
field sqrsum 2981250000
attr interpolationmode none
attr title "received packet byte length, histogram"
attr unit bytes
bin	-inf	0
bin	1499	0
bin	1500	1325
bin	1501	0
scalar NetK.rte[3].queue[4] txBytes:count 1573
attr interpolationmode none
attr title "transmitting packet byte length, count"
attr unit bytes
scalar NetK.rte[3].queue[4] txBytes:sum 2359500
attr interpolationmode none
attr title "transmitting packet byte length, sum"
attr unit bytes
statistic NetK.rte[3].queue[4] txBytes:histogram
field count 1573
field mean 1500
field stddev 0
field min 1500
field max 1500
field sum 2359500
field sqrsum 3539250000
attr interpolationmode none
attr title "transmitting packet byte length, histogram"
attr unit bytes
bin	-inf	0
bin	1499	0
bin	1500	1573
bin	1501	0
scalar NetK.rte[3].queue[4] busy:timeavg 0.0062904273931517
attr interpolationmode sample-hold
attr title "server busy state, timeavg"
scalar NetK.rte[3].queue[4] qlen:timeavg 0.0031954834358077
attr interpolationmode sample-hold
attr title "queue length, timeavg"
scalar NetK.rte[3].queue[4] qlen:max 9
attr interpolationmode sample-hold
attr title "queue length, max"
scalar NetK.rte[3].queue[4] drop:count 0
attr interpolationmode none
attr title "dropped packet byte length, count"
attr unit bytes
scalar NetK.rte[3].queue[4] drop:sum 0
attr interpolationmode none
attr title "dropped packet byte length, sum"
attr unit bytes
statistic NetK.rte[3].queue[5] "drop count"
field count 0
field mean nan
field stddev nan
field min nan
field max nan
field sum 0
field sqrsum 0
bin	-inf	0
bin	0	0
bin	1	0
scalar NetK.rte[3].queue[5] rxBytes:count 12476
attr interpolationmode none
attr title "received packet byte length, count"
attr unit bytes
scalar NetK.rte[3].queue[5] rxBytes:sum 18714000
attr interpolationmode none
attr title "received packet byte length, sum"
attr unit bytes
statistic NetK.rte[3].queue[5] rxBytes:histogram
field count 12476
field mean 1500
field stddev 0
field min 1500
field max 1500
field sum 18714000
field sqrsum 28071000000
attr interpolationmode none
attr title "received packet byte length, histogram"
attr unit bytes
bin	-inf	0
bin	1499	0
bin	1500	12476
bin	1501	0
scalar NetK.rte[3].queue[5] txBytes:count 12896
attr interpolationmode none
attr title "transmitting packet byte length, count"
attr unit bytes
scalar NetK.rte[3].queue[5] txBytes:sum 19344000
attr interpolationmode none
attr title "transmitting packet byte length, sum"
attr unit bytes
statistic NetK.rte[3].queue[5] txBytes:histogram
field count 12896
field mean 1500
field stddev 0
field min 1500
field max 1500
field sum 19344000
field sqrsum 29016000000
attr interpolationmode none
attr title "transmitting packet byte length, histogram"
attr unit bytes
bin	-inf	0
bin	1499	0
bin	1500	12896
bin	1501	0
scalar NetK.rte[3].queue[5] busy:timeavg 0.051571107223196
attr interpolationmode sample-hold
attr title "server busy state, timeavg"
scalar NetK.rte[3].queue[5] qlen:timeavg 5.3714208602232
attr interpolationmode sample-hold
attr title "queue length, timeavg"
scalar NetK.rte[3].queue[5] qlen:max 279
attr interpolationmode sample-hold
attr title "queue length, max"
scalar NetK.rte[3].queue[5] drop:count 0
attr interpolationmode none
attr title "dropped packet byte length, count"
attr unit bytes
scalar NetK.rte[3].queue[5] drop:sum 0
attr interpolationmode none
attr title "dropped packet byte length, sum"
attr unit bytes
scalar NetK.rte[4].app #sent 0
scalar NetK.rte[4].app #received 0
statistic NetK.rte[4].app "hop count"
field count 0
field mean nan
field stddev nan
field min nan
field max nan
field sum 0
field sqrsum 0
bin	-inf	0
bin	0	0
bin	1	0
scalar NetK.rte[4].app hopCount:mean nan
attr interpolationmode none
attr title "hop count of arrived packets, mean"
scalar NetK.rte[4].app hopCount:max nan
attr interpolationmode none
attr title "hop count of arrived packets, max"
scalar NetK.rte[4].app hopCount:count 0
attr interpolationmode none
attr title "hop count of arrived packets, count"
statistic NetK.rte[4].app hopCount:histogram
field count 0
field mean nan
field stddev nan
field min nan
field max nan
field sum 0
field sqrsum 0
attr interpolationmode none
attr title "hop count of arrived packets, histogram"
bin	-inf	0
bin	0	0
bin	1	0
scalar NetK.rte[4].app endToEndDelay:mean nan
attr interpolationmode none
attr title "end-to-end delay of arrived packets, mean"
attr unit s
scalar NetK.rte[4].app endToEndDelay:max nan
attr interpolationmode none
attr title "end-to-end delay of arrived packets, max"
attr unit s
scalar NetK.rte[4].app endToEndDelay:count 0
attr interpolationmode none
attr title "end-to-end delay of arrived packets, count"
attr unit s
scalar NetK.rte[4].routing "Terminal Messages dropped due to wrong prediction" 9
statistic NetK.rte[4].routing TopoLinkCounter:histogram
field count 0
field mean nan
field stddev nan
field min nan
field max nan
field sum 0
field sqrsum 0
attr interpolationmode none
attr title "Number of links enabled in Topology, histogram"
bin	-inf	0
bin	0	0
bin	1	0
scalar NetK.rte[4].routing TopoLinkCounter:mean nan
attr interpolationmode none
attr title "Number of links enabled in Topology, mean"
scalar NetK.rte[4].routing TopoLinkCounter:max nan
attr interpolationmode none
attr title "Number of links enabled in Topology, max"
scalar NetK.rte[4].routing TopoLinkCounter:count 0
attr interpolationmode none
attr title "Number of links enabled in Topology, count"
statistic NetK.rte[4].routing outputIf:histogram
field count 0
field mean nan
field stddev nan
field min nan
field max nan
field sum 0
field sqrsum 0
attr interpolationmode none
attr title "output interface for each routed packet, histogram"
bin	-inf	0
bin	0	0
bin	1	0
scalar NetK.rte[4].routing drop:count 0
attr interpolationmode none
attr title "dropped packet byte length, count"
attr unit bytes
scalar NetK.rte[4].routing drop:sum 0
attr interpolationmode none
attr title "dropped packet byte length, sum"
attr unit bytes
statistic NetK.rte[4].routing hopCount:histogram
field count 0
field mean nan
field stddev nan
field min nan
field max nan
field sum 0
field sqrsum 0
attr interpolationmode none
attr title "count number of hops for packet, histogram"
bin	-inf	0
bin	0	0
bin	1	0
scalar NetK.rte[4].routing hopCount:mean nan
attr interpolationmode none
attr title "count number of hops for packet, mean"
scalar NetK.rte[4].routing hopCount:max nan
attr interpolationmode none
attr title "count number of hops for packet, max"
scalar NetK.rte[4].routing hopCount:count 0
attr interpolationmode none
attr title "count number of hops for packet, count"
statistic NetK.rte[4].queue[0] "drop count"
field count 0
field mean nan
field stddev nan
field min nan
field max nan
field sum 0
field sqrsum 0
bin	-inf	0
bin	0	0
bin	1	0
scalar NetK.rte[4].queue[0] rxBytes:count 1636
attr interpolationmode none
attr title "received packet byte length, count"
attr unit bytes
scalar NetK.rte[4].queue[0] rxBytes:sum 2454000
attr interpolationmode none
attr title "received packet byte length, sum"
attr unit bytes
statistic NetK.rte[4].queue[0] rxBytes:histogram
field count 1636
field mean 1500
field stddev 0
field min 1500
field max 1500
field sum 2454000
field sqrsum 3681000000
attr interpolationmode none
attr title "received packet byte length, histogram"
attr unit bytes
bin	-inf	0
bin	1499	0
bin	1500	1636
bin	1501	0
scalar NetK.rte[4].queue[0] txBytes:count 3403
attr interpolationmode none
attr title "transmitting packet byte length, count"
attr unit bytes
scalar NetK.rte[4].queue[0] txBytes:sum 5104500
attr interpolationmode none
attr title "transmitting packet byte length, sum"
attr unit bytes
statistic NetK.rte[4].queue[0] txBytes:histogram
field count 3403
field mean 1500
field stddev 0
field min 1500
field max 1500
field sum 5104500
field sqrsum 7656750000
attr interpolationmode none
attr title "transmitting packet byte length, histogram"
attr unit bytes
bin	-inf	0
bin	1499	0
bin	1500	3403
bin	1501	0
scalar NetK.rte[4].queue[0] busy:timeavg 0.013608597850537
attr interpolationmode sample-hold
attr title "server busy state, timeavg"
scalar NetK.rte[4].queue[0] qlen:timeavg 0.0020231069549279
attr interpolationmode sample-hold
attr title "queue length, timeavg"
scalar NetK.rte[4].queue[0] qlen:max 6
attr interpolationmode sample-hold
attr title "queue length, max"
scalar NetK.rte[4].queue[0] drop:count 0
attr interpolationmode none
attr title "dropped packet byte length, count"
attr unit bytes
scalar NetK.rte[4].queue[0] drop:sum 0
attr interpolationmode none
attr title "dropped packet byte length, sum"
attr unit bytes
statistic NetK.rte[4].queue[1] "drop count"
field count 0
field mean nan
field stddev nan
field min nan
field max nan
field sum 0
field sqrsum 0
bin	-inf	0
bin	0	0
bin	1	0
scalar NetK.rte[4].queue[1] rxBytes:count 2997
attr interpolationmode none
attr title "received packet byte length, count"
attr unit bytes
scalar NetK.rte[4].queue[1] rxBytes:sum 4495500
attr interpolationmode none
attr title "received packet byte length, sum"
attr unit bytes
statistic NetK.rte[4].queue[1] rxBytes:histogram
field count 2997
field mean 1500
field stddev 0
field min 1500
field max 1500
field sum 4495500
field sqrsum 6743250000
attr interpolationmode none
attr title "received packet byte length, histogram"
attr unit bytes
bin	-inf	0
bin	1499	0
bin	1500	2997
bin	1501	0
scalar NetK.rte[4].queue[1] txBytes:count 1567
attr interpolationmode none
attr title "transmitting packet byte length, count"
attr unit bytes
scalar NetK.rte[4].queue[1] txBytes:sum 2350500
attr interpolationmode none
attr title "transmitting packet byte length, sum"
attr unit bytes
statistic NetK.rte[4].queue[1] txBytes:histogram
field count 1567
field mean 1500
field stddev 0
field min 1500
field max 1500
field sum 2350500
field sqrsum 3525750000
attr interpolationmode none
attr title "transmitting packet byte length, histogram"
attr unit bytes
bin	-inf	0
bin	1499	0
bin	1500	1567
bin	1501	0
scalar NetK.rte[4].queue[1] busy:timeavg 0.0062664333916522
attr interpolationmode sample-hold
attr title "server busy state, timeavg"
scalar NetK.rte[4].queue[1] qlen:timeavg 0.0051472831292177
attr interpolationmode sample-hold
attr title "queue length, timeavg"
scalar NetK.rte[4].queue[1] qlen:max 6
attr interpolationmode sample-hold
attr title "queue length, max"
scalar NetK.rte[4].queue[1] drop:count 0
attr interpolationmode none
attr title "dropped packet byte length, count"
attr unit bytes
scalar NetK.rte[4].queue[1] drop:sum 0
attr interpolationmode none
attr title "dropped packet byte length, sum"
attr unit bytes
statistic NetK.rte[4].queue[2] "drop count"
field count 0
field mean nan
field stddev nan
field min nan
field max nan
field sum 0
field sqrsum 0
bin	-inf	0
bin	0	0
bin	1	0
scalar NetK.rte[4].queue[2] rxBytes:count 1604
attr interpolationmode none
attr title "received packet byte length, count"
attr unit bytes
scalar NetK.rte[4].queue[2] rxBytes:sum 2406000
attr interpolationmode none
attr title "received packet byte length, sum"
attr unit bytes
statistic NetK.rte[4].queue[2] rxBytes:histogram
field count 1604
field mean 1500
field stddev 0
field min 1500
field max 1500
field sum 2406000
field sqrsum 3609000000
attr interpolationmode none
attr title "received packet byte length, histogram"
attr unit bytes
bin	-inf	0
bin	1499	0
bin	1500	1604
bin	1501	0
scalar NetK.rte[4].queue[2] txBytes:count 988
attr interpolationmode none
attr title "transmitting packet byte length, count"
attr unit bytes
scalar NetK.rte[4].queue[2] txBytes:sum 1482000
attr interpolationmode none
attr title "transmitting packet byte length, sum"
attr unit bytes
statistic NetK.rte[4].queue[2] txBytes:histogram
field count 988
field mean 1500
field stddev 0
field min 1500
field max 1500
field sum 1482000
field sqrsum 2223000000
attr interpolationmode none
attr title "transmitting packet byte length, histogram"
attr unit bytes
bin	-inf	0
bin	1499	0
bin	1500	988
bin	1501	0
scalar NetK.rte[4].queue[2] busy:timeavg 0.0039510122469383
attr interpolationmode sample-hold
attr title "server busy state, timeavg"
scalar NetK.rte[4].queue[2] qlen:timeavg 0.0011872388586187
attr interpolationmode sample-hold
attr title "queue length, timeavg"
scalar NetK.rte[4].queue[2] qlen:max 5
attr interpolationmode sample-hold
attr title "queue length, max"
scalar NetK.rte[4].queue[2] drop:count 0
attr interpolationmode none
attr title "dropped packet byte length, count"
attr unit bytes
scalar NetK.rte[4].queue[2] drop:sum 0
attr interpolationmode none
attr title "dropped packet byte length, sum"
attr unit bytes
statistic NetK.rte[4].queue[3] "drop count"
field count 0
field mean nan
field stddev nan
field min nan
field max nan
field sum 0
field sqrsum 0
bin	-inf	0
bin	0	0
bin	1	0
scalar NetK.rte[4].queue[3] rxBytes:count 1880
attr interpolationmode none
attr title "received packet byte length, count"
attr unit bytes
scalar NetK.rte[4].queue[3] rxBytes:sum 2820000
attr interpolationmode none
attr title "received packet byte length, sum"
attr unit bytes
statistic NetK.rte[4].queue[3] rxBytes:histogram
field count 1880
field mean 1500
field stddev 0
field min 1500
field max 1500
field sum 2820000
field sqrsum 4230000000
attr interpolationmode none
attr title "received packet byte length, histogram"
attr unit bytes
bin	-inf	0
bin	1499	0
bin	1500	1880
bin	1501	0
scalar NetK.rte[4].queue[3] txBytes:count 1466
attr interpolationmode none
attr title "transmitting packet byte length, count"
attr unit bytes
scalar NetK.rte[4].queue[3] txBytes:sum 2199000
attr interpolationmode none
attr title "transmitting packet byte length, sum"
attr unit bytes
statistic NetK.rte[4].queue[3] txBytes:histogram
field count 1466
field mean 1500
field stddev 0
field min 1500
field max 1500
field sum 2199000
field sqrsum 3298500000
attr interpolationmode none
attr title "transmitting packet byte length, histogram"
attr unit bytes
bin	-inf	0
bin	1499	0
bin	1500	1466
bin	1501	0
scalar NetK.rte[4].queue[3] busy:timeavg 0.0058625343664085
attr interpolationmode sample-hold
attr title "server busy state, timeavg"
scalar NetK.rte[4].queue[3] qlen:timeavg 0.001876023650754
attr interpolationmode sample-hold
attr title "queue length, timeavg"
scalar NetK.rte[4].queue[3] qlen:max 6
attr interpolationmode sample-hold
attr title "queue length, max"
scalar NetK.rte[4].queue[3] drop:count 0
attr interpolationmode none
attr title "dropped packet byte length, count"
attr unit bytes
scalar NetK.rte[4].queue[3] drop:sum 0
attr interpolationmode none
attr title "dropped packet byte length, sum"
attr unit bytes
[...]
field max nan
field sum 0
field sqrsum 0
attr interpolationmode none
attr title "hop count of arrived packets, histogram"
bin	-inf	0
bin	0	0
bin	1	0
scalar NetK.rte[24].app endToEndDelay:mean nan
attr interpolationmode none
attr title "end-to-end delay of arrived packets, mean"
attr unit s
scalar NetK.rte[24].app endToEndDelay:max nan
attr interpolationmode none
attr title "end-to-end delay of arrived packets, max"
attr unit s
scalar NetK.rte[24].app endToEndDelay:count 0
attr interpolationmode none
attr title "end-to-end delay of arrived packets, count"
attr unit s
scalar NetK.rte[24].routing "Terminal Messages dropped due to wrong prediction" 1
statistic NetK.rte[24].routing TopoLinkCounter:histogram
field count 0
field mean nan
field stddev nan
field min nan
field max nan
field sum 0
field sqrsum 0
attr interpolationmode none
attr title "Number of links enabled in Topology, histogram"
bin	-inf	0
bin	0	0
bin	1	0
scalar NetK.rte[24].routing TopoLinkCounter:mean nan
attr interpolationmode none
attr title "Number of links enabled in Topology, mean"
scalar NetK.rte[24].routing TopoLinkCounter:max nan
attr interpolationmode none
attr title "Number of links enabled in Topology, max"
scalar NetK.rte[24].routing TopoLinkCounter:count 0
attr interpolationmode none
attr title "Number of links enabled in Topology, count"
statistic NetK.rte[24].routing outputIf:histogram
field count 0
field mean nan
field stddev nan
field min nan
field max nan
field sum 0
field sqrsum 0
attr interpolationmode none
attr title "output interface for each routed packet, histogram"
bin	-inf	0
bin	0	0
bin	1	0
scalar NetK.rte[24].routing drop:count 0
attr interpolationmode none
attr title "dropped packet byte length, count"
attr unit bytes
scalar NetK.rte[24].routing drop:sum 0
attr interpolationmode none
attr title "dropped packet byte length, sum"
attr unit bytes
statistic NetK.rte[24].routing hopCount:histogram
field count 0
field mean nan
field stddev nan
field min nan
field max nan
field sum 0
field sqrsum 0
attr interpolationmode none
attr title "count number of hops for packet, histogram"
bin	-inf	0
bin	0	0
bin	1	0
scalar NetK.rte[24].routing hopCount:mean nan
attr interpolationmode none
attr title "count number of hops for packet, mean"
scalar NetK.rte[24].routing hopCount:max nan
attr interpolationmode none
attr title "count number of hops for packet, max"
scalar NetK.rte[24].routing hopCount:count 0
attr interpolationmode none
attr title "count number of hops for packet, count"
statistic NetK.rte[24].queue[0] "drop count"
field count 0
field mean nan
field stddev nan
field min nan
field max nan
field sum 0
field sqrsum 0
bin	-inf	0
bin	0	0
bin	1	0
scalar NetK.rte[24].queue[0] rxBytes:count 1591
attr interpolationmode none
attr title "received packet byte length, count"
attr unit bytes
scalar NetK.rte[24].queue[0] rxBytes:sum 2386500
attr interpolationmode none
attr title "received packet byte length, sum"
attr unit bytes
statistic NetK.rte[24].queue[0] rxBytes:histogram
field count 1591
field mean 1500
field stddev 0
field min 1500
field max 1500
field sum 2386500
field sqrsum 3579750000
attr interpolationmode none
attr title "received packet byte length, histogram"
attr unit bytes
bin	-inf	0
bin	1499	0
bin	1500	1591
bin	1501	0
scalar NetK.rte[24].queue[0] txBytes:count 2613
attr interpolationmode none
attr title "transmitting packet byte length, count"
attr unit bytes
scalar NetK.rte[24].queue[0] txBytes:sum 3919500
attr interpolationmode none
attr title "transmitting packet byte length, sum"
attr unit bytes
statistic NetK.rte[24].queue[0] txBytes:histogram
field count 2613
field mean 1500
field stddev 0
field min 1500
field max 1500
field sum 3919500
field sqrsum 5879250000
attr interpolationmode none
attr title "transmitting packet byte length, histogram"
attr unit bytes
bin	-inf	0
bin	1499	0
bin	1500	2613
bin	1501	0
scalar NetK.rte[24].queue[0] busy:timeavg 0.010449387653087
attr interpolationmode sample-hold
attr title "server busy state, timeavg"
scalar NetK.rte[24].queue[0] qlen:timeavg 0.0039623488694493
attr interpolationmode sample-hold
attr title "queue length, timeavg"
scalar NetK.rte[24].queue[0] qlen:max 13
attr interpolationmode sample-hold
attr title "queue length, max"
scalar NetK.rte[24].queue[0] drop:count 0
attr interpolationmode none
attr title "dropped packet byte length, count"
attr unit bytes
scalar NetK.rte[24].queue[0] drop:sum 0
attr interpolationmode none
attr title "dropped packet byte length, sum"
attr unit bytes
statistic NetK.rte[24].queue[1] "drop count"
field count 0
field mean nan
field stddev nan
field min nan
field max nan
field sum 0
field sqrsum 0
bin	-inf	0
bin	0	0
bin	1	0
scalar NetK.rte[24].queue[1] rxBytes:count 1573
attr interpolationmode none
attr title "received packet byte length, count"
attr unit bytes
scalar NetK.rte[24].queue[1] rxBytes:sum 2359500
attr interpolationmode none
attr title "received packet byte length, sum"
attr unit bytes
statistic NetK.rte[24].queue[1] rxBytes:histogram
field count 1573
field mean 1500
field stddev 0
field min 1500
field max 1500
field sum 2359500
field sqrsum 3539250000
attr interpolationmode none
attr title "received packet byte length, histogram"
attr unit bytes
bin	-inf	0
bin	1499	0
bin	1500	1573
bin	1501	0
scalar NetK.rte[24].queue[1] txBytes:count 1622
attr interpolationmode none
attr title "transmitting packet byte length, count"
attr unit bytes
scalar NetK.rte[24].queue[1] txBytes:sum 2433000
attr interpolationmode none
attr title "transmitting packet byte length, sum"
attr unit bytes
statistic NetK.rte[24].queue[1] txBytes:histogram
field count 1622
field mean 1500
field stddev 0
field min 1500
field max 1500
field sum 2433000
field sqrsum 3649500000
attr interpolationmode none
attr title "transmitting packet byte length, histogram"
attr unit bytes
bin	-inf	0
bin	1499	0
bin	1500	1622
bin	1501	0
scalar NetK.rte[24].queue[1] busy:timeavg 0.0064863784053988
attr interpolationmode sample-hold
attr title "server busy state, timeavg"
scalar NetK.rte[24].queue[1] qlen:timeavg 0.0028294952228609
attr interpolationmode sample-hold
attr title "queue length, timeavg"
scalar NetK.rte[24].queue[1] qlen:max 9
attr interpolationmode sample-hold
attr title "queue length, max"
scalar NetK.rte[24].queue[1] drop:count 0
attr interpolationmode none
attr title "dropped packet byte length, count"
attr unit bytes
scalar NetK.rte[24].queue[1] drop:sum 0
attr interpolationmode none
attr title "dropped packet byte length, sum"
attr unit bytes
statistic NetK.rte[24].queue[2] "drop count"
field count 0
field mean nan
field stddev nan
field min nan
field max nan
field sum 0
field sqrsum 0
bin	-inf	0
bin	0	0
bin	1	0
scalar NetK.rte[24].queue[2] rxBytes:count 856
attr interpolationmode none
attr title "received packet byte length, count"
attr unit bytes
scalar NetK.rte[24].queue[2] rxBytes:sum 1284000
attr interpolationmode none
attr title "received packet byte length, sum"
attr unit bytes
statistic NetK.rte[24].queue[2] rxBytes:histogram
field count 856
field mean 1500
field stddev 0
field min 1500
field max 1500
field sum 1284000
field sqrsum 1926000000
attr interpolationmode none
attr title "received packet byte length, histogram"
attr unit bytes
bin	-inf	0
bin	1499	0
bin	1500	856
bin	1501	0
scalar NetK.rte[24].queue[2] txBytes:count 982
attr interpolationmode none
attr title "transmitting packet byte length, count"
attr unit bytes
scalar NetK.rte[24].queue[2] txBytes:sum 1473000
attr interpolationmode none
attr title "transmitting packet byte length, sum"
attr unit bytes
statistic NetK.rte[24].queue[2] txBytes:histogram
field count 982
field mean 1500
field stddev 0
field min 1500
field max 1500
field sum 1473000
field sqrsum 2209500000
attr interpolationmode none
attr title "transmitting packet byte length, histogram"
attr unit bytes
bin	-inf	0
bin	1499	0
bin	1500	982
bin	1501	0
scalar NetK.rte[24].queue[2] busy:timeavg 0.0039270182454387
attr interpolationmode sample-hold
attr title "server busy state, timeavg"
scalar NetK.rte[24].queue[2] qlen:timeavg 0.0018573762076148
attr interpolationmode sample-hold
attr title "queue length, timeavg"
scalar NetK.rte[24].queue[2] qlen:max 6
attr interpolationmode sample-hold
attr title "queue length, max"
scalar NetK.rte[24].queue[2] drop:count 0
attr interpolationmode none
attr title "dropped packet byte length, count"
attr unit bytes
scalar NetK.rte[24].queue[2] drop:sum 0
attr interpolationmode none
attr title "dropped packet byte length, sum"
attr unit bytes
statistic NetK.rte[24].queue[3] "drop count"
field count 0
field mean nan
field stddev nan
field min nan
field max nan
field sum 0
field sqrsum 0
bin	-inf	0
bin	0	0
bin	1	0
scalar NetK.rte[24].queue[3] rxBytes:count 1466
attr interpolationmode none
attr title "received packet byte length, count"
attr unit bytes
scalar NetK.rte[24].queue[3] rxBytes:sum 2199000
attr interpolationmode none
attr title "received packet byte length, sum"
attr unit bytes
statistic NetK.rte[24].queue[3] rxBytes:histogram
field count 1466
field mean 1500
field stddev 0
field min 1500
field max 1500
field sum 2199000
field sqrsum 3298500000
attr interpolationmode none
attr title "received packet byte length, histogram"
attr unit bytes
bin	-inf	0
bin	1499	0
bin	1500	1466
bin	1501	0
scalar NetK.rte[24].queue[3] txBytes:count 1880
attr interpolationmode none
attr title "transmitting packet byte length, count"
attr unit bytes
scalar NetK.rte[24].queue[3] txBytes:sum 2820000
attr interpolationmode none
attr title "transmitting packet byte length, sum"
attr unit bytes
statistic NetK.rte[24].queue[3] txBytes:histogram
field count 1880
field mean 1500
field stddev 0
field min 1500
field max 1500
field sum 2820000
field sqrsum 4230000000
attr interpolationmode none
attr title "transmitting packet byte length, histogram"
attr unit bytes
bin	-inf	0
bin	1499	0
bin	1500	1880
bin	1501	0
scalar NetK.rte[24].queue[3] busy:timeavg 0.0075181204698826
attr interpolationmode sample-hold
attr title "server busy state, timeavg"
scalar NetK.rte[24].queue[3] qlen:timeavg 0.0014033227459802
attr interpolationmode sample-hold
attr title "queue length, timeavg"
scalar NetK.rte[24].queue[3] qlen:max 8
attr interpolationmode sample-hold
attr title "queue length, max"
scalar NetK.rte[24].queue[3] drop:count 0
attr interpolationmode none
attr title "dropped packet byte length, count"
attr unit bytes
scalar NetK.rte[24].queue[3] drop:sum 0
attr interpolationmode none
attr title "dropped packet byte length, sum"
attr unit bytes
statistic NetK.rte[24].queue[4] "drop count"
field count 0
field mean nan
field stddev nan
field min nan
field max nan
field sum 0
field sqrsum 0
bin	-inf	0
bin	0	0
bin	1	0
scalar NetK.rte[24].queue[4] rxBytes:count 1474
attr interpolationmode none
attr title "received packet byte length, count"
attr unit bytes
scalar NetK.rte[24].queue[4] rxBytes:sum 2211000
attr interpolationmode none
attr title "received packet byte length, sum"
attr unit bytes
statistic NetK.rte[24].queue[4] rxBytes:histogram
field count 1474
field mean 1500
field stddev 0
field min 1500
field max 1500
field sum 2211000
field sqrsum 3316500000
attr interpolationmode none
attr title "received packet byte length, histogram"
attr unit bytes
bin	-inf	0
bin	1499	0
bin	1500	1474
bin	1501	0
scalar NetK.rte[24].queue[4] txBytes:count 1139
attr interpolationmode none
attr title "transmitting packet byte length, count"
attr unit bytes
scalar NetK.rte[24].queue[4] txBytes:sum 1708500
attr interpolationmode none
attr title "transmitting packet byte length, sum"
attr unit bytes
statistic NetK.rte[24].queue[4] txBytes:histogram
field count 1139
field mean 1500
field stddev 0
field min 1500
field max 1500
field sum 1708500
field sqrsum 2562750000
attr interpolationmode none
attr title "transmitting packet byte length, histogram"
attr unit bytes
bin	-inf	0
bin	1499	0
bin	1500	1139
bin	1501	0
scalar NetK.rte[24].queue[4] busy:timeavg 0.0045548612846788
attr interpolationmode sample-hold
attr title "server busy state, timeavg"
scalar NetK.rte[24].queue[4] qlen:timeavg 0.0020590454169791
attr interpolationmode sample-hold
attr title "queue length, timeavg"
scalar NetK.rte[24].queue[4] qlen:max 9
attr interpolationmode sample-hold
attr title "queue length, max"
scalar NetK.rte[24].queue[4] drop:count 0
attr interpolationmode none
attr title "dropped packet byte length, count"
attr unit bytes
scalar NetK.rte[24].queue[4] drop:sum 0
attr interpolationmode none
attr title "dropped packet byte length, sum"
attr unit bytes
statistic NetK.rte[24].queue[5] "drop count"
field count 0
field mean nan
field stddev nan
field min nan
field max nan
field sum 0
field sqrsum 0
bin	-inf	0
bin	0	0
bin	1	0
scalar NetK.rte[24].queue[5] rxBytes:count 2565
attr interpolationmode none
attr title "received packet byte length, count"
attr unit bytes
scalar NetK.rte[24].queue[5] rxBytes:sum 3847500
attr interpolationmode none
attr title "received packet byte length, sum"
attr unit bytes
statistic NetK.rte[24].queue[5] rxBytes:histogram
field count 2565
field mean 1500
field stddev 0
field min 1500
field max 1500
field sum 3847500
field sqrsum 5771250000
attr interpolationmode none
attr title "received packet byte length, histogram"
attr unit bytes
bin	-inf	0
bin	1499	0
bin	1500	2565
bin	1501	0
scalar NetK.rte[24].queue[5] txBytes:count 1484
attr interpolationmode none
attr title "transmitting packet byte length, count"
attr unit bytes
scalar NetK.rte[24].queue[5] txBytes:sum 2226000
attr interpolationmode none
attr title "transmitting packet byte length, sum"
attr unit bytes
statistic NetK.rte[24].queue[5] txBytes:histogram
field count 1484
field mean 1500
field stddev 0
field min 1500
field max 1500
field sum 2226000
field sqrsum 3339000000
attr interpolationmode none
attr title "transmitting packet byte length, histogram"
attr unit bytes
bin	-inf	0
bin	1499	0
bin	1500	1484
bin	1501	0
scalar NetK.rte[24].queue[5] busy:timeavg 0.0059345163709074
attr interpolationmode sample-hold
attr title "server busy state, timeavg"
scalar NetK.rte[24].queue[5] qlen:timeavg 0.0017254811113888
attr interpolationmode sample-hold
attr title "queue length, timeavg"
scalar NetK.rte[24].queue[5] qlen:max 8
attr interpolationmode sample-hold
attr title "queue length, max"
scalar NetK.rte[24].queue[5] drop:count 0
attr interpolationmode none
attr title "dropped packet byte length, count"
attr unit bytes
scalar NetK.rte[24].queue[5] drop:sum 0
attr interpolationmode none
attr title "dropped packet byte length, sum"
attr unit bytes
scalar NetK.terminal[0].app numSent 3980
scalar NetK.terminal[0].app numReceived 3143
scalar NetK.terminal[0].app endToEndDelay:mean 0.33361459754056
attr interpolationmode none
attr title "end-to-end delay of arrived packets, mean"
attr unit s
scalar NetK.terminal[0].app endToEndDelay:max 25.432139887
attr interpolationmode none
attr title "end-to-end delay of arrived packets, max"
attr unit s
scalar NetK.terminal[0].app endToEndDelay:count 3143
attr interpolationmode none
attr title "end-to-end delay of arrived packets, count"
attr unit s
scalar NetK.terminal[1].app numSent 4008
scalar NetK.terminal[1].app numReceived 2999
scalar NetK.terminal[1].app endToEndDelay:mean 0.47622661346614
attr interpolationmode none
attr title "end-to-end delay of arrived packets, mean"
attr unit s
scalar NetK.terminal[1].app endToEndDelay:max 24.928852021
attr interpolationmode none
attr title "end-to-end delay of arrived packets, max"
attr unit s
scalar NetK.terminal[1].app endToEndDelay:count 2999
attr interpolationmode none
attr title "end-to-end delay of arrived packets, count"
attr unit s
scalar NetK.terminal[2].app numSent 3984
scalar NetK.terminal[2].app numReceived 3019
scalar NetK.terminal[2].app endToEndDelay:mean 0.13816855005564
attr interpolationmode none
attr title "end-to-end delay of arrived packets, mean"
attr unit s
scalar NetK.terminal[2].app endToEndDelay:max 23.870434301
attr interpolationmode none
attr title "end-to-end delay of arrived packets, max"
attr unit s
scalar NetK.terminal[2].app endToEndDelay:count 3019
attr interpolationmode none
attr title "end-to-end delay of arrived packets, count"
attr unit s
scalar NetK.terminal[3].app numSent 4046
scalar NetK.terminal[3].app numReceived 2977
scalar NetK.terminal[3].app endToEndDelay:mean 0.31201043833087
attr interpolationmode none
attr title "end-to-end delay of arrived packets, mean"
attr unit s
scalar NetK.terminal[3].app endToEndDelay:max 22.872125791
attr interpolationmode none
attr title "end-to-end delay of arrived packets, max"
attr unit s
scalar NetK.terminal[3].app endToEndDelay:count 2977
attr interpolationmode none
attr title "end-to-end delay of arrived packets, count"
attr unit s
scalar NetK.terminal[4].app numSent 4034
scalar NetK.terminal[4].app numReceived 3092
scalar NetK.terminal[4].app endToEndDelay:mean 0.46855740756629
attr interpolationmode none
attr title "end-to-end delay of arrived packets, mean"
attr unit s
scalar NetK.terminal[4].app endToEndDelay:max 24.910271848
attr interpolationmode none
attr title "end-to-end delay of arrived packets, max"
attr unit s
scalar NetK.terminal[4].app endToEndDelay:count 3092
attr interpolationmode none
attr title "end-to-end delay of arrived packets, count"
attr unit s
scalar NetK.terminal[5].app numSent 3997
scalar NetK.terminal[5].app numReceived 3129
scalar NetK.terminal[5].app endToEndDelay:mean 0.23842877185523
attr interpolationmode none
attr title "end-to-end delay of arrived packets, mean"
attr unit s
scalar NetK.terminal[5].app endToEndDelay:max 24.243087506
attr interpolationmode none
attr title "end-to-end delay of arrived packets, max"
attr unit s
scalar NetK.terminal[5].app endToEndDelay:count 3129
attr interpolationmode none
attr title "end-to-end delay of arrived packets, count"
attr unit s
scalar NetK.terminal[6].app numSent 4067
scalar NetK.terminal[6].app numReceived 2923
scalar NetK.terminal[6].app endToEndDelay:mean 0.18889799813274
attr interpolationmode none
attr title "end-to-end delay of arrived packets, mean"
attr unit s
scalar NetK.terminal[6].app endToEndDelay:max 24.550547896
attr interpolationmode none
attr title "end-to-end delay of arrived packets, max"
attr unit s
scalar NetK.terminal[6].app endToEndDelay:count 2923
attr interpolationmode none
attr title "end-to-end delay of arrived packets, count"
attr unit s
scalar NetK.terminal[7].app numSent 3929
scalar NetK.terminal[7].app numReceived 2946
scalar NetK.terminal[7].app endToEndDelay:mean 0.058372462945011
attr interpolationmode none
attr title "end-to-end delay of arrived packets, mean"
attr unit s
scalar NetK.terminal[7].app endToEndDelay:max 9.42040425
attr interpolationmode none
attr title "end-to-end delay of arrived packets, max"
attr unit s
scalar NetK.terminal[7].app endToEndDelay:count 2946
attr interpolationmode none
attr title "end-to-end delay of arrived packets, count"
attr unit s
scalar NetK.terminal[8].app numSent 4075
scalar NetK.terminal[8].app numReceived 2714
scalar NetK.terminal[8].app endToEndDelay:mean 0.24011142706559
attr interpolationmode none
attr title "end-to-end delay of arrived packets, mean"
attr unit s
scalar NetK.terminal[8].app endToEndDelay:max 24.552443406
attr interpolationmode none
attr title "end-to-end delay of arrived packets, max"
attr unit s
scalar NetK.terminal[8].app endToEndDelay:count 2714
attr interpolationmode none
attr title "end-to-end delay of arrived packets, count"
attr unit s
scalar NetK.terminal[9].app numSent 4071
scalar NetK.terminal[9].app numReceived 2968
scalar NetK.terminal[9].app endToEndDelay:mean 0.072820247143199
attr interpolationmode none
attr title "end-to-end delay of arrived packets, mean"
attr unit s
scalar NetK.terminal[9].app endToEndDelay:max 24.978551351
attr interpolationmode none
attr title "end-to-end delay of arrived packets, max"
attr unit s
scalar NetK.terminal[9].app endToEndDelay:count 2968
attr interpolationmode none
attr title "end-to-end delay of arrived packets, count"
attr unit s

