version 2
run NetK-0-20200915-15:42:51-12284
attr configname NetK
attr datetime 20200915-15:42:51
attr experiment NetK
attr inifile omnetpp.ini
attr iterationvars "$seed=1, $alpha=5, $mVar=5, $LB=true, $LinkPre=true"
attr iterationvarsf seed=1,alpha=5,mVar=5,LB=true,LinkPre=true-
attr measurement "$seed=1, $alpha=5, $mVar=5, $LB=true, $LinkPre=true"
attr network networks.NetK
attr processid 12284
attr repetition 0
attr replication #0
attr resultdir results
attr runnumber 0
attr seedset 1
itervar LB true
itervar LinkPre true
itervar alpha 5
itervar mVar 5
itervar seed 1
param **.num_of_hosts 25
param **.num_of_terminals 2
param *.rte[*].app.hasApp false
param *.terminal[*].radius 1500m
param *.terminal[*].frac 0.8
param *.rte[*].maxTerminalNumber 10
param *.rte[*].maxHopCountForTerminalList 2
param **.maxX 10000m
param **.maxY 10000m
param **.minX 0m
param **.minY 0m
param *.rte[*].mobility.typename "\"TurtleMobility\""
param *.rte[*].mobilityType "\"TurtleMobility\""
param *.rte[0].mobility.turtleScript "xmldoc(\"mobility.xml\", \"movements//movement[@id='0']\")"
param *.rte[1].mobility.turtleScript "xmldoc(\"mobility.xml\", \"movements//movement[@id='1']\")"
param *.rte[2].mobility.turtleScript "xmldoc(\"mobility.xml\", \"movements//movement[@id='2']\")"
param *.rte[3].mobility.turtleScript "xmldoc(\"mobility.xml\", \"movements//movement[@id='3']\")"
param *.rte[4].mobility.turtleScript "xmldoc(\"mobility.xml\", \"movements//movement[@id='4']\")"
param *.rte[5].mobility.turtleScript "xmldoc(\"mobility.xml\", \"movements//movement[@id='5']\")"
param *.rte[6].mobility.turtleScript "xmldoc(\"mobility.xml\", \"movements//movement[@id='6']\")"
param *.rte[7].mobility.turtleScript "xmldoc(\"mobility.xml\", \"movements//movement[@id='7']\")"
param *.rte[8].mobility.turtleScript "xmldoc(\"mobility.xml\", \"movements//movement[@id='8']\")"
param *.rte[9].mobility.turtleScript "xmldoc(\"mobility.xml\", \"movements//movement[@id='9']\")"
param *.rte[10].mobility.turtleScript "xmldoc(\"mobility.xml\", \"movements//movement[@id='10']\")"
param *.rte[11].mobility.turtleScript "xmldoc(\"mobility.xml\", \"movements//movement[@id='11']\")"
param *.rte[12].mobility.turtleScript "xmldoc(\"mobility.xml\", \"movements//movement[@id='12']\")"
param *.rte[13].mobility.turtleScript "xmldoc(\"mobility.xml\", \"movements//movement[@id='13']\")"
param *.rte[14].mobility.turtleScript "xmldoc(\"mobility.xml\", \"movements//movement[@id='14']\")"
param *.rte[15].mobility.turtleScript "xmldoc(\"mobility.xml\", \"movements//movement[@id='15']\")"
param *.rte[16].mobility.turtleScript "xmldoc(\"mobility.xml\", \"movements//movement[@id='16']\")"
param *.rte[17].mobility.turtleScript "xmldoc(\"mobility.xml\", \"movements//movement[@id='17']\")"
param *.rte[18].mobility.turtleScript "xmldoc(\"mobility.xml\", \"movements//movement[@id='18']\")"
param *.rte[19].mobility.turtleScript "xmldoc(\"mobility.xml\", \"movements//movement[@id='19']\")"
param *.rte[20].mobility.turtleScript "xmldoc(\"mobility.xml\", \"movements//movement[@id='20']\")"
param *.rte[21].mobility.turtleScript "xmldoc(\"mobility.xml\", \"movements//movement[@id='21']\")"
param *.rte[22].mobility.turtleScript "xmldoc(\"mobility.xml\", \"movements//movement[@id='22']\")"
param *.rte[23].mobility.turtleScript "xmldoc(\"mobility.xml\", \"movements//movement[@id='23']\")"
param *.rte[24].mobility.turtleScript "xmldoc(\"mobility.xml\", \"movements//movement[@id='24']\")"
param *.terminal[*].mobility.typename "\"StationaryMobility\""
param *.terminal[*].mobilityType "\"StationaryMobility\""
param **.alpha 5
param **.m_var 5
param **.changeRate 25s
param **.terminal[*].app.packetLength "1500 bytes"
param **.terminal[*].app.sendIaTime exponential(150ms)
param **.terminal[*].app.burst_next_event exponential(25s)
param **.terminal[*].app.burst_next_interval exponential(40ms)
param **.terminal[*].app.burst_size "intuniform (80,320)"
param **.rte[*].frameCapacity 7000
param **.datarate 5Mbps
param **.load_balance_mode true
param **.load_balance_link_prediction true
param **.load_threshold 85
param **.rte[*].appType "\"App\""

vector 0 NetK.rte[0] coordX:vector ETV
attr interpolationmode linear
attr source xCoord(mobilityPos(mobilityStateChanged))
attr title "coord X, vector"
vector 1 NetK.rte[0] coordY:vector ETV
attr interpolationmode linear
attr source yCoord(mobilityPos(mobilityStateChanged))
attr title "coord Y, vector"
vector 2 NetK.rte[1] coordX:vector ETV
attr interpolationmode linear
attr source xCoord(mobilityPos(mobilityStateChanged))
attr title "coord X, vector"
vector 3 NetK.rte[1] coordY:vector ETV
attr interpolationmode linear
attr source yCoord(mobilityPos(mobilityStateChanged))
attr title "coord Y, vector"
vector 4 NetK.rte[2] coordX:vector ETV
attr interpolationmode linear
attr source xCoord(mobilityPos(mobilityStateChanged))
attr title "coord X, vector"
vector 5 NetK.rte[2] coordY:vector ETV
attr interpolationmode linear
attr source yCoord(mobilityPos(mobilityStateChanged))
attr title "coord Y, vector"
vector 6 NetK.rte[3] coordX:vector ETV
attr interpolationmode linear
attr source xCoord(mobilityPos(mobilityStateChanged))
attr title "coord X, vector"
vector 7 NetK.rte[3] coordY:vector ETV
attr interpolationmode linear
attr source yCoord(mobilityPos(mobilityStateChanged))
attr title "coord Y, vector"
vector 8 NetK.rte[4] coordX:vector ETV
attr interpolationmode linear
attr source xCoord(mobilityPos(mobilityStateChanged))
attr title "coord X, vector"
vector 9 NetK.rte[4] coordY:vector ETV
attr interpolationmode linear
attr source yCoord(mobilityPos(mobilityStateChanged))
attr title "coord Y, vector"
vector 10 NetK.rte[5] coordX:vector ETV
attr interpolationmode linear
attr source xCoord(mobilityPos(mobilityStateChanged))
attr title "coord X, vector"
vector 11 NetK.rte[5] coordY:vector ETV
attr interpolationmode linear
attr source yCoord(mobilityPos(mobilityStateChanged))
attr title "coord Y, vector"
vector 12 NetK.rte[6] coordX:vector ETV
attr interpolationmode linear
attr source xCoord(mobilityPos(mobilityStateChanged))
attr title "coord X, vector"
vector 13 NetK.rte[6] coordY:vector ETV
attr interpolationmode linear
attr source yCoord(mobilityPos(mobilityStateChanged))
attr title "coord Y, vector"
vector 14 NetK.rte[7] coordX:vector ETV
attr interpolationmode linear
attr source xCoord(mobilityPos(mobilityStateChanged))
attr title "coord X, vector"
vector 15 NetK.rte[7] coordY:vector ETV
attr interpolationmode linear
attr source yCoord(mobilityPos(mobilityStateChanged))
attr title "coord Y, vector"
vector 16 NetK.rte[8] coordX:vector ETV
attr interpolationmode linear
attr source xCoord(mobilityPos(mobilityStateChanged))
attr title "coord X, vector"
vector 17 NetK.rte[8] coordY:vector ETV
attr interpolationmode linear
attr source yCoord(mobilityPos(mobilityStateChanged))
attr title "coord Y, vector"
vector 18 NetK.rte[9] coordX:vector ETV
attr interpolationmode linear
attr source xCoord(mobilityPos(mobilityStateChanged))
attr title "coord X, vector"
vector 19 NetK.rte[9] coordY:vector ETV
attr interpolationmode linear
attr source yCoord(mobilityPos(mobilityStateChanged))
attr title "coord Y, vector"
vector 20 NetK.rte[10] coordX:vector ETV
attr interpolationmode linear
attr source xCoord(mobilityPos(mobilityStateChanged))
attr title "coord X, vector"
vector 21 NetK.rte[10] coordY:vector ETV
attr interpolationmode linear
attr source yCoord(mobilityPos(mobilityStateChanged))
attr title "coord Y, vector"
vector 22 NetK.rte[11] coordX:vector ETV
attr interpolationmode linear
attr source xCoord(mobilityPos(mobilityStateChanged))
attr title "coord X, vector"
vector 23 NetK.rte[11] coordY:vector ETV
attr interpolationmode linear
attr source yCoord(mobilityPos(mobilityStateChanged))
attr title "coord Y, vector"
vector 24 NetK.rte[12] coordX:vector ETV
attr interpolationmode linear
attr source xCoord(mobilityPos(mobilityStateChanged))
attr title "coord X, vector"
vector 25 NetK.rte[12] coordY:vector ETV
attr interpolationmode linear
attr source yCoord(mobilityPos(mobilityStateChanged))
attr title "coord Y, vector"
vector 26 NetK.rte[13] coordX:vector ETV
attr interpolationmode linear
attr source xCoord(mobilityPos(mobilityStateChanged))
attr title "coord X, vector"
vector 27 NetK.rte[13] coordY:vector ETV
attr interpolationmode linear
attr source yCoord(mobilityPos(mobilityStateChanged))
attr title "coord Y, vector"
vector 28 NetK.rte[14] coordX:vector ETV
attr interpolationmode linear
attr source xCoord(mobilityPos(mobilityStateChanged))
attr title "coord X, vector"
vector 29 NetK.rte[14] coordY:vector ETV
attr interpolationmode linear
attr source yCoord(mobilityPos(mobilityStateChanged))
attr title "coord Y, vector"
vector 30 NetK.rte[15] coordX:vector ETV
attr interpolationmode linear
attr source xCoord(mobilityPos(mobilityStateChanged))
attr title "coord X, vector"
vector 31 NetK.rte[15] coordY:vector ETV
attr interpolationmode linear
attr source yCoord(mobilityPos(mobilityStateChanged))
attr title "coord Y, vector"
vector 32 NetK.rte[16] coordX:vector ETV
attr interpolationmode linear
attr source xCoord(mobilityPos(mobilityStateChanged))
attr title "coord X, vector"
vector 33 NetK.rte[16] coordY:vector ETV
attr interpolationmode linear
attr source yCoord(mobilityPos(mobilityStateChanged))
attr title "coord Y, vector"
vector 34 NetK.rte[17] coordX:vector ETV
attr interpolationmode linear
attr source xCoord(mobilityPos(mobilityStateChanged))
attr title "coord X, vector"
vector 35 NetK.rte[17] coordY:vector ETV
attr interpolationmode linear
attr source yCoord(mobilityPos(mobilityStateChanged))
attr title "coord Y, vector"
vector 36 NetK.rte[18] coordX:vector ETV
attr interpolationmode linear
attr source xCoord(mobilityPos(mobilityStateChanged))
attr title "coord X, vector"
vector 37 NetK.rte[18] coordY:vector ETV
attr interpolationmode linear
attr source yCoord(mobilityPos(mobilityStateChanged))
attr title "coord Y, vector"
vector 38 NetK.rte[19] coordX:vector ETV
attr interpolationmode linear
attr source xCoord(mobilityPos(mobilityStateChanged))
attr title "coord X, vector"
vector 39 NetK.rte[19] coordY:vector ETV
attr interpolationmode linear
attr source yCoord(mobilityPos(mobilityStateChanged))
attr title "coord Y, vector"
vector 40 NetK.rte[20] coordX:vector ETV
attr interpolationmode linear
attr source xCoord(mobilityPos(mobilityStateChanged))
attr title "coord X, vector"
vector 41 NetK.rte[20] coordY:vector ETV
attr interpolationmode linear
attr source yCoord(mobilityPos(mobilityStateChanged))
attr title "coord Y, vector"
vector 42 NetK.rte[21] coordX:vector ETV
attr interpolationmode linear
attr source xCoord(mobilityPos(mobilityStateChanged))
attr title "coord X, vector"
vector 43 NetK.rte[21] coordY:vector ETV
attr interpolationmode linear
attr source yCoord(mobilityPos(mobilityStateChanged))
attr title "coord Y, vector"
vector 44 NetK.rte[22] coordX:vector ETV
attr interpolationmode linear
attr source xCoord(mobilityPos(mobilityStateChanged))
attr title "coord X, vector"
vector 45 NetK.rte[22] coordY:vector ETV
attr interpolationmode linear
attr source yCoord(mobilityPos(mobilityStateChanged))
attr title "coord Y, vector"
vector 46 NetK.rte[23] coordX:vector ETV
attr interpolationmode linear
attr source xCoord(mobilityPos(mobilityStateChanged))
attr title "coord X, vector"
vector 47 NetK.rte[23] coordY:vector ETV
attr interpolationmode linear
attr source yCoord(mobilityPos(mobilityStateChanged))
attr title "coord Y, vector"
vector 48 NetK.rte[24] coordX:vector ETV
attr interpolationmode linear
attr source xCoord(mobilityPos(mobilityStateChanged))
attr title "coord X, vector"
vector 49 NetK.rte[24] coordY:vector ETV
attr interpolationmode linear
attr source yCoord(mobilityPos(mobilityStateChanged))
attr title "coord Y, vector"
vector 50 NetK.terminal[0] coordX:vector ETV
attr interpolationmode linear
attr source xCoord(mobilityPos(mobilityStateChanged))
attr title "coord X, vector"
vector 51 NetK.terminal[0] coordY:vector ETV
attr interpolationmode linear
attr source yCoord(mobilityPos(mobilityStateChanged))
attr title "coord Y, vector"
vector 52 NetK.terminal[1] coordX:vector ETV
attr interpolationmode linear
attr source xCoord(mobilityPos(mobilityStateChanged))
attr title "coord X, vector"
vector 53 NetK.terminal[1] coordY:vector ETV
attr interpolationmode linear
attr source yCoord(mobilityPos(mobilityStateChanged))
attr title "coord Y, vector"
vector 54 NetK.rte[0].queue[2] Throughput ETV
vector 55 NetK.rte[0].queue[0] Throughput ETV
vector 56 NetK.rte[4].queue[0] Throughput ETV
vector 57 NetK.rte[1].queue[4] Throughput ETV
vector 58 NetK.rte[3].queue[1] Throughput ETV
vector 59 NetK.rte[3].queue[5] Throughput ETV
vector 60 NetK.rte[3].queue[2] Throughput ETV
vector 61 NetK.rte[3].queue[4] Throughput ETV
vector 62 NetK.rte[3].queue[3] Throughput ETV
vector 63 NetK.rte[7].queue[4] Throughput ETV
vector 64 NetK.rte[7].queue[0] Throughput ETV
vector 65 NetK.rte[7].queue[2] Throughput ETV
vector 66 NetK.rte[7].queue[1] Throughput ETV
vector 67 NetK.rte[7].queue[3] Throughput ETV
vector 68 NetK.rte[4].queue[2] Throughput ETV
vector 69 NetK.rte[22].queue[3] Throughput ETV
vector 70 NetK.rte[8].queue[1] Throughput ETV
vector 71 NetK.rte[1].queue[0] Throughput ETV
vector 72 NetK.rte[8].queue[0] Throughput ETV
vector 73 NetK.rte[6].queue[4] Throughput ETV
vector 74 NetK.rte[12].queue[1] Throughput ETV
vector 75 NetK.rte[2].queue[0] Throughput ETV
vector 76 NetK.rte[11].queue[0] Throughput ETV
vector 77 NetK.rte[11].queue[1] Throughput ETV
vector 78 NetK.rte[11].queue[2] Throughput ETV
vector 79 NetK.rte[11].queue[3] Throughput ETV
vector 80 NetK.rte[11].queue[4] Throughput ETV
vector 81 NetK.rte[11].queue[5] Throughput ETV
vector 82 NetK.rte[8].queue[0] Size ETV
vector 83 NetK.rte[8].queue[1] Size ETV
vector 84 NetK.rte[8].queue[2] Throughput ETV
vector 85 NetK.rte[8].queue[3] Throughput ETV
vector 86 NetK.rte[8].queue[4] Throughput ETV
vector 87 NetK.rte[8].queue[5] Throughput ETV
vector 88 NetK.rte[6].queue[0] Throughput ETV
vector 89 NetK.rte[6].queue[1] Throughput ETV
vector 90 NetK.rte[6].queue[2] Throughput ETV
vector 91 NetK.rte[6].queue[3] Throughput ETV
vector 92 NetK.rte[6].queue[4] Size ETV
vector 93 NetK.rte[6].queue[5] Throughput ETV
vector 94 NetK.rte[10].queue[0] Throughput ETV
vector 95 NetK.rte[12].queue[0] Throughput ETV
vector 96 NetK.rte[12].queue[1] Size ETV
vector 97 NetK.rte[12].queue[2] Throughput ETV
vector 98 NetK.rte[12].queue[3] Throughput ETV
vector 99 NetK.rte[12].queue[4] Throughput ETV
vector 100 NetK.rte[12].queue[5] Throughput ETV
vector 101 NetK.rte[16].queue[2] Throughput ETV
vector 102 NetK.rte[5].queue[0] Throughput ETV
vector 103 NetK.rte[17].queue[2] Throughput ETV
vector 104 NetK.rte[9].queue[0] Throughput ETV
vector 105 NetK.rte[9].queue[1] Throughput ETV
vector 106 NetK.rte[9].queue[2] Throughput ETV
vector 107 NetK.rte[9].queue[4] Throughput ETV
vector 108 NetK.rte[9].queue[5] Throughput ETV
vector 109 NetK.rte[13].queue[3] Throughput ETV
vector 110 NetK.rte[2].queue[0] Size ETV
vector 111 NetK.rte[2].queue[2] Throughput ETV
vector 112 NetK.rte[2].queue[3] Throughput ETV
vector 113 NetK.rte[2].queue[5] Throughput ETV
vector 114 NetK.rte[14].queue[2] Throughput ETV
vector 115 NetK.rte[1].queue[0] Size ETV
vector 116 NetK.rte[1].queue[1] Throughput ETV
vector 117 NetK.rte[1].queue[2] Throughput ETV
vector 118 NetK.rte[1].queue[3] Throughput ETV
vector 119 NetK.rte[1].queue[4] Size ETV
vector 120 NetK.rte[1].queue[5] Throughput ETV
vector 121 NetK.rte[5].queue[0] Size ETV
vector 122 NetK.rte[7].queue[0] Size ETV
vector 123 NetK.rte[7].queue[1] Size ETV
vector 124 NetK.rte[7].queue[2] Size ETV
vector 125 NetK.rte[7].queue[3] Size ETV
vector 126 NetK.rte[7].queue[4] Size ETV
vector 127 NetK.rte[11].queue[0] Size ETV
vector 128 NetK.rte[11].queue[1] Size ETV
vector 129 NetK.rte[11].queue[2] Size ETV
vector 130 NetK.rte[11].queue[3] Size ETV
vector 131 NetK.rte[11].queue[4] Size ETV
vector 132 NetK.rte[11].queue[5] Size ETV
vector 133 NetK.rte[12].queue[0] Size ETV
vector 134 NetK.rte[12].queue[2] Size ETV
vector 135 NetK.rte[12].queue[3] Size ETV
vector 136 NetK.rte[12].queue[4] Size ETV
vector 137 NetK.rte[12].queue[5] Size ETV
vector 138 NetK.rte[13].queue[3] Size ETV
vector 139 NetK.rte[17].queue[2] Size ETV
vector 140 NetK.rte[6].queue[0] Size ETV
vector 141 NetK.rte[6].queue[1] Size ETV
vector 142 NetK.rte[6].queue[2] Size ETV
vector 143 NetK.rte[6].queue[3] Size ETV
vector 144 NetK.rte[6].queue[5] Size ETV
vector 145 NetK.rte[18].queue[5] Throughput ETV
vector 146 NetK.rte[0].queue[0] Size ETV
vector 147 NetK.rte[0].queue[1] Throughput ETV
vector 148 NetK.rte[0].queue[2] Size ETV
vector 149 NetK.rte[18].queue[5] Size ETV
vector 150 NetK.rte[4].queue[0] Size ETV
vector 151 NetK.rte[4].queue[1] Throughput ETV
vector 152 NetK.rte[4].queue[2] Size ETV
vector 153 NetK.rte[4].queue[3] Throughput ETV
vector 154 NetK.rte[4].queue[4] Throughput ETV
vector 155 NetK.rte[4].queue[5] Throughput ETV
vector 156 NetK.rte[8].queue[2] Size ETV
vector 157 NetK.rte[8].queue[3] Size ETV
vector 158 NetK.rte[8].queue[4] Size ETV
vector 159 NetK.rte[8].queue[5] Size ETV
vector 160 NetK.rte[14].queue[2] Size ETV
vector 161 NetK.rte[3].queue[1] Size ETV
vector 162 NetK.rte[3].queue[2] Size ETV
vector 163 NetK.rte[3].queue[3] Size ETV
vector 164 NetK.rte[3].queue[4] Size ETV
vector 165 NetK.rte[3].queue[5] Size ETV
vector 166 NetK.rte[10].queue[0] Size ETV
vector 167 NetK.rte[22].queue[0] Throughput ETV
vector 168 NetK.rte[22].queue[1] Throughput ETV
vector 169 NetK.rte[22].queue[2] Throughput ETV
vector 170 NetK.rte[22].queue[3] Size ETV
vector 171 NetK.rte[22].queue[4] Throughput ETV
vector 172 NetK.rte[22].queue[5] Throughput ETV
vector 173 NetK.rte[21].queue[1] Throughput ETV
vector 174 NetK.rte[19].queue[2] Throughput ETV
vector 175 NetK.rte[23].queue[2] Throughput ETV
vector 176 NetK.rte[0].queue[1] Size ETV
vector 177 NetK.rte[1].queue[1] Size ETV
vector 178 NetK.rte[1].queue[2] Size ETV
vector 179 NetK.rte[1].queue[3] Size ETV
vector 180 NetK.rte[1].queue[5] Size ETV
vector 181 NetK.rte[16].queue[2] Size ETV
vector 182 NetK.rte[9].queue[0] Size ETV
vector 183 NetK.rte[9].queue[1] Size ETV
vector 184 NetK.rte[9].queue[2] Size ETV
vector 185 NetK.rte[9].queue[4] Size ETV
vector 186 NetK.rte[2].queue[2] Size ETV
vector 187 NetK.rte[2].queue[5] Size ETV
vector 188 NetK.rte[4].queue[3] Size ETV
vector 189 NetK.rte[4].queue[4] Size ETV
vector 190 NetK.rte[4].queue[5] Size ETV
vector 191 NetK.rte[22].queue[0] Size ETV
vector 192 NetK.rte[22].queue[1] Size ETV
vector 193 NetK.rte[22].queue[2] Size ETV
vector 194 NetK.rte[22].queue[4] Size ETV
vector 195 NetK.rte[22].queue[5] Size ETV
vector 196 NetK.rte[21].queue[1] Size ETV
vector 197 NetK.rte[19].queue[2] Size ETV
vector 198 NetK.rte[23].queue[2] Size ETV
vector 199 NetK.rte[17].queue[4] Throughput ETV
vector 200 NetK.rte[9].queue[5] Size ETV
vector 201 NetK.rte[2].queue[3] Size ETV
vector 202 NetK.rte[13].queue[1] Throughput ETV
vector 203 NetK.rte[21].queue[5] Throughput ETV
vector 204 NetK.rte[17].queue[4] Size ETV
vector 205 NetK.rte[23].queue[1] Throughput ETV
vector 206 NetK.rte[23].queue[4] Throughput ETV
vector 207 NetK.rte[23].queue[5] Throughput ETV
vector 208 NetK.rte[14].queue[1] Throughput ETV
vector 209 NetK.rte[5].queue[1] Throughput ETV
vector 210 NetK.rte[17].queue[0] Throughput ETV
vector 211 NetK.rte[13].queue[2] Throughput ETV
vector 212 NetK.rte[13].queue[4] Throughput ETV
vector 213 NetK.rte[14].queue[0] Throughput ETV
vector 214 NetK.rte[21].queue[5] Size ETV
vector 215 NetK.rte[14].queue[5] Throughput ETV
vector 216 NetK.rte[5].queue[4] Throughput ETV
vector 217 NetK.rte[23].queue[1] Size ETV
vector 218 NetK.rte[23].queue[4] Size ETV
vector 219 NetK.rte[23].queue[5] Size ETV
vector 220 NetK.rte[14].queue[1] Size ETV
vector 221 NetK.rte[5].queue[1] Size ETV
vector 222 NetK.rte[17].queue[0] Size ETV
vector 223 NetK.rte[14].queue[0] Size ETV
vector 224 NetK.rte[5].queue[4] Size ETV
vector 225 NetK.rte[13].queue[4] Size ETV
vector 226 NetK.rte[4].queue[1] Size ETV
vector 227 NetK.rte[14].queue[4] Throughput ETV
vector 228 NetK.rte[14].queue[4] Size ETV
vector 229 NetK.rte[17].queue[5] Throughput ETV
vector 230 NetK.rte[15].queue[1] Throughput ETV
vector 231 NetK.rte[17].queue[5] Size ETV
vector 232 NetK.rte[21].queue[3] Throughput ETV
vector 233 NetK.rte[15].queue[1] Size ETV
vector 234 NetK.rte[15].queue[2] Throughput ETV
vector 235 NetK.rte[21].queue[3] Size ETV
vector 236 NetK.rte[15].queue[2] Size ETV
vector 237 NetK.rte[15].queue[5] Throughput ETV
vector 238 NetK.rte[14].queue[5] Size ETV
vector 239 NetK.rte[15].queue[5] Size ETV
vector 240 NetK.rte[17].queue[3] Throughput ETV
vector 241 NetK.rte[13].queue[2] Size ETV
vector 242 NetK.rte[17].queue[3] Size ETV
vector 243 NetK.rte[10].queue[1] Throughput ETV
vector 244 NetK.rte[10].queue[2] Throughput ETV
vector 245 NetK.rte[10].queue[4] Throughput ETV
vector 246 NetK.rte[16].queue[0] Throughput ETV
vector 247 NetK.rte[16].queue[1] Throughput ETV
vector 248 NetK.rte[16].queue[3] Throughput ETV
vector 249 NetK.rte[16].queue[4] Throughput ETV
vector 250 NetK.rte[5].queue[5] Throughput ETV
vector 251 NetK.rte[5].queue[5] Size ETV
vector 252 NetK.rte[15].queue[3] Throughput ETV
vector 253 NetK.rte[15].queue[4] Throughput ETV
vector 254 NetK.rte[13].queue[1] Size ETV
vector 255 NetK.rte[18].queue[1] Throughput ETV
vector 256 NetK.rte[18].queue[2] Throughput ETV
vector 257 NetK.rte[18].queue[4] Throughput ETV
vector 258 NetK.rte[15].queue[3] Size ETV
vector 259 NetK.rte[15].queue[4] Size ETV
vector 260 NetK.rte[21].queue[0] Throughput ETV
vector 261 NetK.rte[21].queue[2] Throughput ETV
vector 262 NetK.rte[21].queue[4] Throughput ETV
vector 263 NetK.rte[10].queue[1] Size ETV
vector 264 NetK.rte[10].queue[2] Size ETV
vector 265 NetK.rte[10].queue[4] Size ETV
vector 266 NetK.rte[18].queue[1] Size ETV
vector 267 NetK.rte[18].queue[2] Size ETV
vector 268 NetK.rte[18].queue[4] Size ETV
vector 269 NetK.rte[16].queue[0] Size ETV
vector 270 NetK.rte[16].queue[1] Size ETV
vector 271 NetK.rte[16].queue[3] Size ETV
vector 272 NetK.rte[16].queue[4] Size ETV
vector 273 NetK.rte[21].queue[0] Size ETV
vector 274 NetK.rte[21].queue[2] Size ETV
vector 275 NetK.rte[21].queue[4] Size ETV
vector 276 NetK.terminal[0].app endToEndDelay:vector ETV
attr interpolationmode none
attr title "end-to-end delay of arrived packets, vector"
attr unit s
vector 277 NetK.terminal[1].app endToEndDelay:vector ETV
attr interpolationmode none
attr title "end-to-end delay of arrived packets, vector"
attr unit s
vector 278 NetK.rte[0].queue[5] Throughput ETV
vector 279 NetK.rte[24].queue[3] Throughput ETV
vector 280 NetK.rte[24].queue[3] Size ETV
vector 281 NetK.rte[24].queue[0] Throughput ETV
vector 282 NetK.rte[19].queue[3] Throughput ETV
vector 283 NetK.rte[15].queue[0] Throughput ETV
vector 284 NetK.rte[5].queue[3] Throughput ETV
vector 285 NetK.rte[9].queue[3] Throughput ETV
vector 286 NetK.rte[24].queue[0] Size ETV
vector 287 NetK.rte[19].queue[3] Size ETV
vector 288 NetK.rte[15].queue[0] Size ETV
vector 289 NetK.rte[5].queue[3] Size ETV
vector 290 NetK.rte[10].queue[5] Throughput ETV
vector 291 NetK.rte[19].queue[4] Throughput ETV
vector 292 NetK.rte[20].queue[4] Throughput ETV
vector 293 NetK.rte[19].queue[4] Size ETV
vector 294 NetK.rte[20].queue[4] Size ETV
vector 295 NetK.rte[19].queue[5] Throughput ETV
vector 296 NetK.rte[9].queue[3] Size ETV
vector 297 NetK.rte[13].queue[0] Throughput ETV
vector 298 NetK.rte[2].queue[4] Throughput ETV
vector 299 NetK.rte[14].queue[3] Throughput ETV
vector 300 NetK.rte[23].queue[0] Throughput ETV
vector 301 NetK.rte[23].queue[3] Throughput ETV
vector 302 NetK.rte[2].queue[4] Size ETV
vector 303 NetK.rte[14].queue[3] Size ETV
vector 304 NetK.rte[18].queue[3] Throughput ETV
vector 305 NetK.rte[19].queue[0] Throughput ETV
vector 306 NetK.rte[19].queue[1] Throughput ETV
vector 307 NetK.rte[19].queue[5] Size ETV
vector 308 NetK.rte[10].queue[5] Size ETV
vector 309 NetK.rte[0].queue[5] Size ETV
vector 310 NetK.rte[16].queue[5] Throughput ETV
vector 311 NetK.rte[13].queue[0] Size ETV
vector 312 NetK.rte[23].queue[0] Size ETV
vector 313 NetK.rte[23].queue[3] Size ETV
vector 314 NetK.rte[18].queue[3] Size ETV
vector 315 NetK.rte[19].queue[0] Size ETV
vector 316 NetK.rte[19].queue[1] Size ETV
vector 317 NetK.rte[16].queue[5] Size ETV
vector 318 NetK.rte[5].queue[2] Throughput ETV
vector 319 NetK.rte[5].queue[2] Size ETV
vector 320 NetK.rte[17].queue[1] Throughput ETV
vector 321 NetK.rte[17].queue[1] Size ETV
vector 322 NetK.rte[20].queue[1] Throughput ETV
vector 323 NetK.rte[20].queue[1] Size ETV
vector 324 NetK.rte[0].queue[3] Throughput ETV
vector 325 NetK.rte[20].queue[0] Throughput ETV
vector 326 NetK.rte[20].queue[0] Size ETV
vector 327 NetK.rte[20].queue[3] Throughput ETV
vector 328 NetK.rte[20].queue[2] Throughput ETV
vector 329 NetK.rte[0].queue[3] Size ETV
vector 330 NetK.rte[0].queue[4] Throughput ETV
vector 331 NetK.rte[0].queue[4] Size ETV
vector 332 NetK.rte[20].queue[3] Size ETV
vector 333 NetK.rte[24].queue[1] Throughput ETV
vector 334 NetK.rte[24].queue[1] Size ETV
vector 335 NetK.rte[20].queue[2] Size ETV
vector 336 NetK.rte[24].queue[5] Throughput ETV
vector 337 NetK.rte[24].queue[5] Size ETV
vector 338 NetK.rte[20].queue[5] Throughput ETV
vector 339 NetK.rte[20].queue[5] Size ETV
vector 340 NetK.rte[24].queue[2] Throughput ETV
vector 341 NetK.rte[24].queue[2] Size ETV
vector 342 NetK.rte[24].queue[4] Throughput ETV
vector 343 NetK.rte[24].queue[4] Size ETV
vector 344 NetK.rte[18].queue[0] Throughput ETV
vector 345 NetK.rte[18].queue[0] Size ETV
vector 346 NetK.rte[3].queue[0] Throughput ETV
vector 347 NetK.rte[3].queue[0] Size ETV
vector 348 NetK.rte[2].queue[1] Throughput ETV
vector 349 NetK.rte[2].queue[1] Size ETV
vector 350 NetK.rte[10].queue[3] Throughput ETV
vector 351 NetK.rte[10].queue[3] Size ETV
0	0	0	1000
0	0	0	1000
0	0	0	1000
0	2741	0.1	1000
0	2788	0.2	1000
0	2855	0.3	1000
0	2902	0.4	1000
0	2969	0.5	1000
0	2996	0.6	1000
0	3023	0.7	1000
0	3090	0.8	1000
0	3157	0.9	1000
0	3244	1	1000
0	3331	1.1	1000
0	3358	1.2	1000
0	3405	1.3	1000
0	3452	1.4	1000
0	3499	1.5	1000
0	3546	1.6	1000
0	3593	1.7	1000
0	3640	1.8	1000
0	3667	1.9	1000
0	3694	2	1000
0	3821	2.1	1000
0	3868	2.2	1000
0	3935	2.3	1000
0	3982	2.4	1000
0	4049	2.5	1000
0	4096	2.6	1000
0	4163	2.7	1000
0	4230	2.8	1000
0	4297	2.9	1000
0	4344	3	1000
0	4391	3.1	1000
0	4458	3.2	1000
0	4505	3.3	1000
0	4552	3.4	1000
0	4599	3.5	1000
0	4626	3.6	1000
0	4673	3.7	1000
0	4720	3.8	1000
0	4747	3.9	1000
0	4814	4	1000
0	4861	4.1	1000
0	4968	4.2	1000
0	5035	4.3	1000
0	5102	4.4	1000
0	5129	4.5	1000
0	5176	4.6	1000
0	5263	4.7	1000
0	5290	4.8	1000
0	5317	4.9	1000
0	5364	5	1000
0	5411	5.1	1000
0	5458	5.2	1000
0	5505	5.3	1000
0	5532	5.4	1000
0	5579	5.5	1000
0	5626	5.6	1000
0	5653	5.7	1000
0	5680	5.8	1000
0	5707	5.9	1000
0	5754	6	1000
0	5861	6.1	1000
0	5888	6.2	1000
0	5915	6.3	1000
0	5942	6.4	1000
0	5969	6.5	1000
0	6056	6.6	1000
0	6083	6.7	1000
0	6130	6.8	1000
0	6217	6.9	1000
0	6284	7	1000
0	6311	7.1	1000
0	6378	7.2	1000
0	6485	7.3	1000
0	6512	7.4	1000
0	6559	7.5	1000
0	6626	7.6	1000
0	6673	7.7	1000
0	6740	7.8	1000
0	6767	7.9	1000
0	6794	8	1000
0	6841	8.1	1000
0	6868	8.2	1000
0	6915	8.3	1000
0	6962	8.4	1000
0	6989	8.5	1000
0	7016	8.6	1000
0	7083	8.7	1000
0	7150	8.8	1000
0	7197	8.9	1000
0	7244	9	1000
0	7291	9.1	1000
0	7318	9.2	1000
0	7385	9.3	1000
0	7452	9.4	1000
0	7499	9.5	1000
0	7546	9.6	1000
0	7593	9.7	1000
0	7660	9.8	1000
0	7687	9.9	1000
0	7714	10	1000
0	7781	10.1	1000
0	7808	10.2	1000
0	7835	10.3	1000
0	7862	10.4	1000
0	7889	10.5	1000
0	8056	10.6	1000
0	8123	10.7	1000
0	8190	10.8	1000
0	8217	10.9	1000
0	8264	11	1000
0	8351	11.1	1000
0	8378	11.2	1000
0	8425	11.3	1000
0	8472	11.4	1000
0	8499	11.5	1000
0	8546	11.6	1000
0	8593	11.7	1000
0	8700	11.8	1000
0	8747	11.9	1000
0	8774	12	1000
0	8801	12.1	1000
0	8848	12.2	1000
0	8895	12.3	1000
0	8922	12.4	1000
0	8949	12.5	1000
0	9016	12.6	1000
0	9063	12.7	1000
0	9110	12.8	1000
0	9217	12.9	1000
0	9324	13	1000
0	9371	13.1	1000
0	9438	13.2	1000
0	9465	13.3	1000
0	9532	13.4	1000
0	9599	13.5	1000
0	9626	13.6	1000
0	9653	13.7	1000
0	9800	13.8	1000
0	9847	13.9	1000
0	9914	14	1000
0	9961	14.1	1000
0	10048	14.2	1000
0	10115	14.3	1000
0	10162	14.4	1000
0	10229	14.5	1000
0	10316	14.6	1000
0	10343	14.7	1000
0	10390	14.8	1000
0	10417	14.9	1000
0	10484	15	1000
0	10511	15.1	1000
0	10558	15.2	1000
0	10585	15.3	1000
0	10632	15.4	1000
0	10699	15.5	1000
0	10762	15.6	1000
0	10853	15.7	1000
0	10900	15.8	1000
0	10927	15.9	1000
0	10954	16	1000
0	11001	16.1	1000
0	11028	16.2	1000
0	11095	16.3	1000
0	11162	16.4	1000
0	11189	16.5	1000
0	11236	16.6	1000
0	11283	16.7	1000
0	11350	16.8	1000
0	11437	16.9	1000
0	11484	17	1000
0	11551	17.1	1000
0	11598	17.2	1000
0	11665	17.3	1000
0	11692	17.4	1000
0	11719	17.5	1000
0	11826	17.6	1000
0	11853	17.7	1000
0	11880	17.8	1000
0	11927	17.9	1000
0	11974	18	1000
0	12021	18.1	1000
0	12068	18.2	1000
0	12095	18.3	1000
0	12122	18.4	1000
0	12189	18.5	1000
0	12256	18.6	1000
0	12383	18.7	1000
0	12430	18.8	1000
0	12517	18.9	1000
0	12604	19	1000
0	12691	19.1	1000
0	12718	19.2	1000
0	12805	19.3	1000
0	12872	19.4	1000
0	12899	19.5	1000
0	12926	19.6	1000
0	13013	19.7	1000
0	13060	19.8	1000
0	13087	19.9	1000
0	13154	20	1000
0	13181	20.1	1000
0	13228	20.2	1000
0	13275	20.3	1000
0	13322	20.4	1000
0	13369	20.5	1000
0	13416	20.6	1000
0	13483	20.7	1000
0	13530	20.8	1000
0	13597	20.9	1000
0	13640	21	1000
0	13671	21.1	1000
0	13758	21.2	1000
0	13805	21.3	1000
0	13832	21.4	1000
0	13879	21.5	1000
0	13926	21.6	1000
0	13973	21.7	1000
0	14060	21.8	1000
0	14107	21.9	1000
0	14154	22	1000
0	14181	22.1	1000
0	14248	22.2	1000
0	14335	22.3	1000
0	14402	22.4	1000
0	14489	22.5	1000
0	14556	22.6	1000
0	14583	22.7	1000
0	14610	22.8	1000
0	14657	22.9	1000
0	14684	23	1000
0	14731	23.1	1000
0	14758	23.2	1000
0	14821	23.3	1000
0	14892	23.4	1000
0	14939	23.5	1000
0	15006	23.6	1000
0	15073	23.7	1000
0	15100	23.8	1000
0	15143	23.9	1000
0	15234	24	1000
0	15261	24.1	1000
0	15308	24.2	1000
0	15335	24.3	1000
0	15402	24.4	1000
0	15449	24.5	1000
0	15496	24.6	1000
0	15583	24.7	1000
0	15610	24.8	1000
0	15657	24.9	1000
0	15705	25	1000
0	16027	25.0072	1000
0	18341	25.1	1000
0	18369	25.2	1000
0	18397	25.3	1000
0	18424	25.4	1000
0	18450	25.5	1000
0	18480	25.6	1000
0	18506	25.7	1000
0	18534	25.8	1000
0	18561	25.9	1000
0	18587	26	1000
0	18617	26.1	1000
0	18645	26.2	1000
0	18673	26.3	1000
0	18699	26.4	1000
0	18730	26.5	1000
0	18760	26.6	1000
0	18786	26.7	1000
0	18814	26.8	1000
0	18840	26.9	1000
0	18866	27	1000
0	18892	27.1	1000
0	18918	27.2	1000
0	18944	27.3	1000
0	18970	27.4	1000
0	18999	27.5	1000
0	19027	27.6	1000
0	19055	27.7	1000
0	19083	27.8	1000
0	19111	27.9	1000
0	19139	28	1000
0	19165	28.1	1000
0	19196	28.2	1000
0	19222	28.3	1000
0	19251	28.4	1000
0	19279	28.5	1000
0	19305	28.6	1000
0	19335	28.7	1000
0	19361	28.8	1000
0	19388	28.9	1000
0	19415	29	1000
0	19443	29.1	1000
0	19470	29.2	1000
0	19500	29.3	1000
0	19527	29.4	1000
0	19555	29.5	1000
0	19584	29.6	1000
0	19611	29.7	1000
0	19639	29.8	1000
0	19668	29.9	1000
0	19699	30	1000
0	19740	30.1	1000
0	19772	30.2	1000
0	19806	30.3	1000
0	19833	30.4	1000
0	19863	30.5	1000
0	19890	30.6	1000
0	19916	30.7	1000
0	19944	30.8	1000
0	19970	30.9	1000
0	19998	31	1000
0	20025	31.1	1000
0	20051	31.2	1000
0	20077	31.3	1000
0	20106	31.4	1000
0	20134	31.5	1000
0	20162	31.6	1000
0	20188	31.7	1000
0	20216	31.8	1000
0	20243	31.9	1000
0	20270	32	1000
0	20298	32.1	1000
0	20326	32.2	1000
0	20353	32.3	1000
0	20379	32.4	1000
0	20405	32.5	1000
0	20434	32.6	1000
0	20462	32.7	1000
0	20490	32.8	1000
0	20516	32.9	1000
0	20543	33	1000
0	20569	33.1	1000
0	20597	33.2	1000
0	20624	33.3	1000
0	20652	33.4	1000
0	20679	33.5	1000
0	20709	33.6	1000
0	20735	33.7	1000
0	20761	33.8	1000
0	20790	33.9	1000
0	20817	34	1000
0	20844	34.1	1000
0	20871	34.2	1000
0	20897	34.3	1000
0	20926	34.4	1000
0	20955	34.5	1000
0	20983	34.6	1000
0	21009	34.7	1000
0	21036	34.8	1000
0	21063	34.9	1000
0	21092	35	1000
0	21118	35.1	1000
0	21145	35.2	1000
0	21173	35.3	1000
0	21204	35.4	1000
0	21230	35.5	1000
0	21256	35.6	1000
0	21282	35.7	1000
0	21310	35.8	1000
0	21336	35.9	1000
0	21363	36	1000
0	21389	36.1	1000
0	21417	36.2	1000
0	21446	36.3	1000
0	21472	36.4	1000
0	21501	36.5	1000
0	21529	36.6	1000
0	21555	36.7	1000
0	21581	36.8	1000
0	21607	36.9	1000
0	21633	37	1000
0	21663	37.1	1000
0	21693	37.2	1000
0	21720	37.3	1000
0	21747	37.4	1000
0	21773	37.5	1000
0	21799	37.6	1000
0	21827	37.7	1000
0	21855	37.8	1000
0	21884	37.9	1000
0	21913	38	1000
0	21944	38.1	1000
0	21972	38.2	1000
0	21998	38.3	1000
0	22026	38.4	1000
0	22052	38.5	1000
0	22080	38.6	1000
0	22106	38.7	1000
0	22137	38.8	1000
0	22163	38.9	1000
0	22189	39	1000
0	22215	39.1	1000
0	22243	39.2	1000
0	22274	39.3	1000
0	22302	39.4	1000
0	22330	39.5	1000
0	22358	39.6	1000
0	22386	39.7	1000
0	22415	39.8	1000
0	22441	39.9	1000
0	22467	40	1000
0	22499	40.1	1000
0	22531	40.2	1000
0	22560	40.3	1000
0	22588	40.4	1000
0	22619	40.5	1000
0	22649	40.6	1000
0	22680	40.7	1000
0	22709	40.8	1000
0	22735	40.9	1000
0	22766	41	1000
0	22792	41.1	1000
0	22820	41.2	1000
0	22849	41.3	1000
0	22875	41.4	1000
0	22903	41.5	1000
0	22929	41.6	1000
0	22956	41.7	1000
0	22983	41.8	1000
0	23011	41.9	1000
0	23037	42	1000
0	23067	42.1	1000
0	23095	42.2	1000
0	23122	42.3	1000
0	23148	42.4	1000
0	23174	42.5	1000
0	23201	42.6	1000
0	23230	42.7	1000
0	23258	42.8	1000
0	23285	42.9	1000
0	23311	43	1000
0	23344	43.1	1000
0	23372	43.2	1000
0	23398	43.3	1000
0	23425	43.4	1000
0	23455	43.5	1000
0	23483	43.6	1000
0	23511	43.7	1000
0	23537	43.8	1000
0	23567	43.9	1000
0	23593	44	1000
0	23620	44.1	1000
0	23647	44.2	1000
0	23673	44.3	1000
0	23702	44.4	1000
0	23732	44.5	1000
0	23758	44.6	1000
0	23784	44.7	1000
0	23810	44.8	1000
0	23837	44.9	1000
0	23866	45	1000
0	23892	45.1	1000
0	23919	45.2	1000
0	23947	45.3	1000
0	23975	45.4	1000
0	24005	45.5	1000
0	24032	45.6	1000
0	24058	45.7	1000
0	24087	45.8	1000
0	24113	45.9	1000
0	24142	46	1000
0	24169	46.1	1000
0	24198	46.2	1000
0	24228	46.3	1000
0	24256	46.4	1000
0	24288	46.5	1000
0	24316	46.6	1000
0	24346	46.7	1000
0	24372	46.8	1000
0	24402	46.9	1000
0	24430	47	1000
0	24457	47.1	1000
0	24487	47.2	1000
0	24513	47.3	1000
0	24540	47.4	1000
0	24567	47.5	1000
0	24597	47.6	1000
0	24626	47.7	1000
0	24657	47.8	1000
0	24687	47.9	1000
0	24714	48	1000
0	24742	48.1	1000
0	24772	48.2	1000
0	24800	48.3	1000
0	24826	48.4	1000
0	24857	48.5	1000
0	24885	48.6	1000
0	24917	48.7	1000
0	24946	48.8	1000
0	24976	48.9	1000
0	25002	49	1000
0	25028	49.1	1000
0	25058	49.2	1000
0	25090	49.3	1000
0	25119	49.4	1000
0	25146	49.5	1000
0	25174	49.6	1000
0	25207	49.7	1000
0	25236	49.8	1000
0	25263	49.9	1000
0	25298	50	1000
0	26732	50.1	1000
0	26867	50.2	1000
0	26895	50.3	1000
0	26923	50.4	1000
0	26949	50.5	1000
0	26975	50.6	1000
0	27003	50.7	1000
0	27033	50.8	1000
0	27059	50.9	1000
0	27085	51	1000
0	27114	51.1	1000
0	27140	51.2	1000
0	27170	51.3	1000
0	27199	51.4	1000
0	27228	51.5	1000
0	27257	51.6	1000
0	27286	51.7	1000
0	27312	51.8	1000
0	27339	51.9	1000
0	27366	52	1000
0	27394	52.1	1000
0	27426	52.2	1000
0	27457	52.3	1000
0	27485	52.4	1000
0	27511	52.5	1000
0	27539	52.6	1000
0	27565	52.7	1000
0	27592	52.8	1000
0	27623	52.9	1000
0	27650	53	1000
0	27683	53.1	1000
0	27709	53.2	1000
0	27735	53.3	1000
0	27761	53.4	1000
0	27789	53.5	1000
0	27815	53.6	1000
0	27845	53.7	1000
0	27874	53.8	1000
0	27901	53.9	1000
0	27928	54	1000
0	27954	54.1	1000
0	27985	54.2	1000
0	28013	54.3	1000
0	28041	54.4	1000
0	28069	54.5	1000
0	28095	54.6	1000
0	28122	54.7	1000
0	28149	54.8	1000
0	28176	54.9	1000
0	28203	55	1000
0	28235	55.1	1000
0	28263	55.2	1000
0	28295	55.3	1000
0	28321	55.4	1000
0	28350	55.5	1000
0	28379	55.6	1000
0	28408	55.7	1000
0	28436	55.8	1000
0	28462	55.9	1000
0	28489	56	1000
0	28518	56.1	1000
0	28552	56.2	1000
0	28581	56.3	1000
0	28607	56.4	1000
0	28636	56.5	1000
0	28662	56.6	1000
0	28688	56.7	1000
0	28717	56.8	1000
0	28748	56.9	1000
0	28774	57	1000
0	28802	57.1	1000
0	28830	57.2	1000
0	28856	57.3	1000
0	28887	57.4	1000
0	28913	57.5	1000
0	28939	57.6	1000
0	28967	57.7	1000
0	28997	57.8	1000
0	29023	57.9	1000
0	29049	58	1000
0	29076	58.1	1000
0	29106	58.2	1000
0	29137	58.3	1000
0	29163	58.4	1000
0	29192	58.5	1000
0	29222	58.6	1000
0	29250	58.7	1000
0	29276	58.8	1000
0	29302	58.9	1000
0	29329	59	1000
0	29355	59.1	1000
0	29383	59.2	1000
0	29410	59.3	1000
0	29440	59.4	1000
0	29466	59.5	1000
0	29495	59.6	1000
0	29521	59.7	1000
0	29555	59.8	1000
0	29582	59.9	1000
0	29609	60	1000
0	29638	60.1	1000
0	29664	60.2	1000
0	29690	60.3	1000
0	29718	60.4	1000
0	29747	60.5	1000
0	29777	60.6	1000
0	29804	60.7	1000
0	29832	60.8	1000
0	29858	60.9	1000
0	29886	61	1000
0	29913	61.1	1000
0	29940	61.2	1000
0	29970	61.3	1000
0	30001	61.4	1000
0	30029	61.5	1000
0	30055	61.6	1000
0	30083	61.7	1000
0	30110	61.8	1000
0	30138	61.9	1000
0	30166	62	1000
0	30193	62.1	1000
0	30221	62.2	1000
0	30249	62.3	1000
0	30279	62.4	1000
0	30305	62.5	1000
0	30333	62.6	1000
0	30360	62.7	1000
0	30389	62.8	1000
0	30418	62.9	1000
0	30444	63	1000
0	30472	63.1	1000
0	30499	63.2	1000
0	30526	63.3	1000
0	30553	63.4	1000
0	30581	63.5	1000
0	30607	63.6	1000
0	30633	63.7	1000
0	30659	63.8	1000
0	30686	63.9	1000
0	30715	64	1000
0	30751	64.1	1000
0	30780	64.2	1000
0	30809	64.3	1000
0	30836	64.4	1000
0	30865	64.5	1000
0	30901	64.6	1000
0	30931	64.7	1000
0	30957	64.8	1000
0	30985	64.9	1000
0	31017	65	1000
0	31043	65.1	1000
0	31071	65.2	1000
0	31099	65.3	1000
0	31127	65.4	1000
0	31153	65.5	1000
0	31180	65.6	1000
0	31208	65.7	1000
0	31238	65.8	1000
0	31267	65.9	1000
0	31294	66	1000
0	31323	66.1	1000
0	31351	66.2	1000
0	31377	66.3	1000
0	31406	66.4	1000
0	31433	66.5	1000
0	31461	66.6	1000
0	31491	66.7	1000
0	31519	66.8	1000
0	31551	66.9	1000
0	31577	67	1000
0	31603	67.1	1000
0	31629	67.2	1000
0	31659	67.3	1000
0	31687	67.4	1000
0	31714	67.5	1000
0	31743	67.6	1000
0	31774	67.7	1000
0	31807	67.8	1000
0	31839	67.9	1000
0	31870	68	1000
0	31899	68.1	1000
0	31926	68.2	1000
0	31952	68.3	1000
0	31979	68.4	1000
0	32007	68.5	1000
0	32034	68.6	1000
0	32062	68.7	1000
0	32090	68.8	1000
0	32119	68.9	1000
0	32413	69	1000
0	32440	69.1	1000
0	32466	69.2	1000
0	32491	69.3	1000
0	32519	69.4	1000
0	32545	69.5	1000
0	32571	69.6	1000
0	32597	69.7	1000
0	32623	69.8	1000
0	32649	69.9	1000
0	32676	70	1000
0	32703	70.1	1000
0	32728	70.2	1000
0	32754	70.3	1000
0	32780	70.4	1000
0	32807	70.5	1000
0	32833	70.6	1000
0	32859	70.7	1000
0	32885	70.8	1000
0	32910	70.9	1000
0	32935	71	1000
0	32961	71.1	1000
0	32986	71.2	1000
0	33011	71.3	1000
0	33036	71.4	1000
0	33061	71.5	1000
0	33087	71.6	1000
0	33114	71.7	1000
0	33143	71.8	1000
0	33168	71.9	1000
0	33194	72	1000
0	33219	72.1	1000
0	33246	72.2	1000
0	33273	72.3	1000
0	33299	72.4	1000
0	33324	72.5	1000
0	33350	72.6	1000
0	33375	72.7	1000
0	33404	72.8	1000
0	33429	72.9	1000
0	33456	73	1000
0	33481	73.1	1000
0	33506	73.2	1000
0	33532	73.3	1000
0	33557	73.4	1000
0	33583	73.5	1000
0	33610	73.6	1000
0	33636	73.7	1000
0	33661	73.8	1000
0	33687	73.9	1000
0	33713	74	1000
0	33740	74.1	1000
0	33766	74.2	1000
0	33792	74.3	1000
0	33817	74.4	1000
0	33843	74.5	1000
0	33869	74.6	1000
0	33895	74.7	1000
0	33920	74.8	1000
0	33946	74.9	1000
0	33973	75	1000
0	35369	75.1	1000
0	35395	75.2	1000
0	35445	75.3	1000
0	35470	75.4	1000
0	35518	75.5	1000
0	35546	75.6	1000
0	35592	75.7	1000
0	35621	75.8	1000
0	35666	75.9	1000
0	35692	76	1000
0	35737	76.1	1000
0	35763	76.2	1000
0	35808	76.3	1000
0	35835	76.4	1000
0	35881	76.5	1000
0	35907	76.6	1000
0	35954	76.7	1000
0	35981	76.8	1000
0	36027	76.9	1000
0	36053	77	1000
0	36099	77.1	1000
0	36127	77.2	1000
0	36174	77.3	1000
0	36200	77.4	1000
0	36246	77.5	1000
0	36272	77.6	1000
0	36319	77.7	1000
0	36344	77.8	1000
0	36390	77.9	1000
0	36418	78	1000
0	36463	78.1	1000
0	36489	78.2	1000
0	36536	78.3	1000
0	36563	78.4	1000
0	36609	78.5	1000
0	36636	78.6	1000
0	36682	78.7	1000
0	36712	78.8	1000
0	36758	78.9	1000
0	36783	79	1000
0	36830	79.1	1000
0	36855	79.2	1000
0	36902	79.3	1000
0	36928	79.4	1000
0	36976	79.5	1000
0	37003	79.6	1000
0	37050	79.7	1000
0	37075	79.8	1000
0	37120	79.9	1000
0	37148	80	1000
0	37194	80.1	1000
0	37220	80.2	1000
0	37266	80.3	1000
0	37292	80.4	1000
0	37339	80.5	1000
0	37364	80.6	1000
0	37410	80.7	1000
0	37436	80.8	1000
0	37483	80.9	1000
0	37510	81	1000
0	37558	81.1	1000
0	37585	81.2	1000
0	37630	81.3	1000
0	37657	81.4	1000
0	37703	81.5	1000
0	37730	81.6	1000
0	37777	81.7	1000
0	37805	81.8	1000
0	37851	81.9	1000
0	37878	82	1000
0	37926	82.1	1000
0	37952	82.2	1000
0	37998	82.3	1000
0	38024	82.4	1000
0	38070	82.5	1000
0	38098	82.6	1000
0	38146	82.7	1000
0	38171	82.8	1000
0	38216	82.9	1000
0	38242	83	1000
0	38289	83.1	1000
0	38314	83.2	1000
0	38359	83.3	1000
0	38384	83.4	1000
0	38429	83.5	1000
0	38457	83.6	1000
0	38505	83.7	1000
0	38531	83.8	1000
0	38577	83.9	1000
0	38603	84	1000
0	38650	84.1	1000
0	38675	84.2	1000
0	38721	84.3	1000
0	38749	84.4	1000
0	38795	84.5	1000
0	38821	84.6	1000
0	38866	84.7	1000
0	38891	84.8	1000
0	38937	84.9	1000
0	38963	85	1000
0	39010	85.1	1000
0	39038	85.2	1000
0	39086	85.3	1000
0	39112	85.4	1000
0	39157	85.5	1000
0	39183	85.6	1000
0	39230	85.7	1000
0	39257	85.8	1000
0	39302	85.9	1000
0	39328	86	1000
0	39374	86.1	1000
0	39399	86.2	1000
0	39445	86.3	1000
0	39471	86.4	1000
0	39520	86.5	1000
0	39547	86.6	1000
0	39595	86.7	1000
0	39620	86.8	1000
0	39668	86.9	1000
0	39693	87	1000
0	39739	87.1	1000
0	39766	87.2	1000
0	39812	87.3	1000
0	39839	87.4	1000
0	39886	87.5	1000
0	39914	87.6	1000
0	39960	87.7	1000
0	39986	87.8	1000
0	40031	87.9	1000
0	40057	88	1000
0	40106	88.1	1000
0	40132	88.2	1000
0	40179	88.3	1000
0	40209	88.4	1000
0	40254	88.5	1000
0	40283	88.6	1000
0	40331	88.7	1000
0	40357	88.8	1000
0	40403	88.9	1000
0	40428	89	1000
0	40476	89.1	1000
0	40502	89.2	1000
0	40548	89.3	1000
0	40574	89.4	1000
0	40621	89.5	1000
0	40651	89.6	1000
0	40698	89.7	1000
0	40724	89.8	1000
0	40772	89.9	1000
0	40800	90	1000
0	40846	90.1	1000
0	40872	90.2	1000
0	40917	90.3	1000
0	40942	90.4	1000
0	40989	90.5	1000
0	41015	90.6	1000
0	41061	90.7	1000
0	41087	90.8	1000
0	41133	90.9	1000
0	41158	91	1000
0	41205	91.1	1000
0	41232	91.2	1000
0	41278	91.3	1000
0	41304	91.4	1000
0	41350	91.5	1000
0	41376	91.6	1000
0	41421	91.7	1000
0	41448	91.8	1000
0	41496	91.9	1000
0	41523	92	1000
0	41570	92.1	1000
0	41596	92.2	1000
0	41642	92.3	1000
0	41668	92.4	1000
0	41713	92.5	1000
0	41741	92.6	1000
0	41786	92.7	1000
0	41811	92.8	1000
0	41858	92.9	1000
0	41884	93	1000
0	41931	93.1	1000
0	41958	93.2	1000
0	42005	93.3	1000
0	42030	93.4	1000
0	42077	93.5	1000
0	42103	93.6	1000
0	42148	93.7	1000
0	42174	93.8	1000
0	42221	93.9	1000
0	42246	94	1000
0	42293	94.1	1000
0	42318	94.2	1000
0	42364	94.3	1000
0	42390	94.4	1000
0	42437	94.5	1000
0	42462	94.6	1000
0	42509	94.7	1000
0	42534	94.8	1000
0	42580	94.9	1000
0	42608	95	1000
0	42655	95.1	1000
0	42680	95.2	1000
0	42725	95.3	1000
0	42751	95.4	1000
0	42797	95.5	1000
0	42823	95.6	1000
0	42870	95.7	1000
0	42896	95.8	1000
0	42941	95.9	1000
0	42970	96	1000
0	43015	96.1	1000
0	43041	96.2	1000
0	43088	96.3	1000
0	43114	96.4	1000
0	43160	96.5	1000
0	43185	96.6	1000
0	43231	96.7	1000
0	43257	96.8	1000
0	43304	96.9	1000
0	43330	97	1000
0	43376	97.1	1000
0	43401	97.2	1000
0	43446	97.3	1000
0	43472	97.4	1000
0	43519	97.5	1000
0	43545	97.6	1000
0	43591	97.7	1000
0	43618	97.8	1000
0	43664	97.9	1000
0	43691	98	1000
0	43737	98.1	1000
0	43764	98.2	1000
0	43810	98.3	1000
0	43836	98.4	1000
0	43881	98.5	1000
0	43907	98.6	1000
0	43954	98.7	1000
0	43980	98.8	1000
0	44026	98.9	1000
0	44053	99	1000
0	44099	99.1	1000
0	44124	99.2	1000
0	44169	99.3	1000
0	44196	99.4	1000
0	44243	99.5	1000
0	44270	99.6	1000
0	44318	99.7	1000
0	44344	99.8	1000
0	44389	99.9	1000
0	44415	100	1000
0	45775	100.1	1000
0	45800	100.2	1000
0	45849	100.3	1000
0	45876	100.4	1000
0	45925	100.5	1000
0	45950	100.6	1000
0	45999	100.7	1000
0	46024	100.8	1000
0	46074	100.9	1000
0	46099	101	1000
0	46149	101.1	1000
0	46174	101.2	1000
0	46225	101.3	1000
0	46252	101.4	1000
0	46301	101.5	1000
0	46327	101.6	1000
0	46377	101.7	1000
0	46403	101.8	1000
0	46453	101.9	1000
0	46480	102	1000
0	46528	102.1	1000
0	46554	102.2	1000
0	46604	102.3	1000
0	46631	102.4	1000
0	46682	102.5	1000
0	46708	102.6	1000
0	46757	102.7	1000
0	46783	102.8	1000
0	46832	102.9	1000
0	46859	103	1000
0	46908	103.1	1000
0	46933	103.2	1000
0	46981	103.3	1000
0	47009	103.4	1000
0	47058	103.5	1000
0	47086	103.6	1000
0	47134	103.7	1000
0	47160	103.8	1000
0	47210	103.9	1000
0	47236	104	1000
0	47285	104.1	1000
0	47311	104.2	1000
0	47360	104.3	1000
0	47387	104.4	1000
0	47437	104.5	1000
0	47466	104.6	1000
0	47515	104.7	1000
0	47541	104.8	1000
0	47589	104.9	1000
0	47619	105	1000
0	47683	105.1	1000
0	47709	105.2	1000
0	47760	105.3	1000
0	47788	105.4	1000
0	47840	105.5	1000
0	47865	105.6	1000
0	47915	105.7	1000
0	47940	105.8	1000
0	47990	105.9	1000
0	48016	106	1000
0	48066	106.1	1000
0	48092	106.2	1000
0	48140	106.3	1000
0	48169	106.4	1000
0	48219	106.5	1000
0	48245	106.6	1000
0	48294	106.7	1000
0	48322	106.8	1000
0	48370	106.9	1000
0	48397	107	1000
0	48447	107.1	1000
0	48474	107.2	1000
0	48523	107.3	1000
0	48549	107.4	1000
0	48599	107.5	1000
0	48625	107.6	1000
0	48675	107.7	1000
0	48702	107.8	1000
0	48752	107.9	1000
0	48779	108	1000
0	48828	108.1	1000
0	48854	108.2	1000
0	48903	108.3	1000
0	48928	108.4	1000
0	48978	108.5	1000
0	49004	108.6	1000
0	49055	108.7	1000
0	49082	108.8	1000
0	49132	108.9	1000
0	49159	109	1000
0	49207	109.1	1000
0	49233	109.2	1000
0	49282	109.3	1000
0	49307	109.4	1000
0	49356	109.5	1000
0	49381	109.6	1000
0	49431	109.7	1000
0	49459	109.8	1000
0	49509	109.9	1000
0	49535	110	1000
0	49583	110.1	1000
0	49609	110.2	1000
0	49658	110.3	1000
0	49685	110.4	1000
0	49736	110.5	1000
0	49764	110.6	1000
0	49812	110.7	1000
0	49839	110.8	1000
0	49889	110.9	1000
0	49915	111	1000
0	49963	111.1	1000
0	49991	111.2	1000
0	50042	111.3	1000
0	50069	111.4	1000
0	50119	111.5	1000
0	50146	111.6	1000
0	50194	111.7	1000
0	50223	111.8	1000
0	50272	111.9	1000
0	50299	112	1000
0	50348	112.1	1000
0	50374	112.2	1000
0	50425	112.3	1000
0	50450	112.4	1000
0	50501	112.5	1000
0	50528	112.6	1000
0	50577	112.7	1000
0	50604	112.8	1000
0	50655	112.9	1000
0	50681	113	1000
0	50729	113.1	1000
0	50756	113.2	1000
0	50806	113.3	1000
0	50831	113.4	1000
0	50879	113.5	1000
0	50904	113.6	1000
0	50953	113.7	1000
0	50982	113.8	1000
0	51031	113.9	1000
0	51060	114	1000
0	51109	114.1	1000
0	51137	114.2	1000
0	51189	114.3	1000
0	51216	114.4	1000
0	51264	114.5	1000
0	51290	114.6	1000
0	51339	114.7	1000
0	51366	114.8	1000
0	51414	114.9	1000
0	51439	115	1000
0	51488	115.1	1000
0	51513	115.2	1000
0	51562	115.3	1000
0	51588	115.4	1000
0	51640	115.5	1000
0	51666	115.6	1000
0	51716	115.7	1000
0	51743	115.8	1000
0	51792	115.9	1000
0	51818	116	1000
0	51866	116.1	1000
0	51892	116.2	1000
0	51942	116.3	1000
0	51970	116.4	1000
0	52018	116.5	1000
0	52044	116.6	1000
0	52093	116.7	1000
0	52121	116.8	1000
0	52171	116.9	1000
0	52198	117	1000
0	52248	117.1	1000
0	52275	117.2	1000
0	52323	117.3	1000
0	52348	117.4	1000
0	52398	117.5	1000
0	52423	117.6	1000
0	52471	117.7	1000
0	52497	117.8	1000
0	52547	117.9	1000
0	52575	118	1000
0	52623	118.1	1000
0	52651	118.2	1000
0	52699	118.3	1000
0	52724	118.4	1000
0	52778	118.5	1000
0	52804	118.6	1000
0	52854	118.7	1000
0	52883	118.8	1000
0	52934	118.9	1000
0	52959	119	1000
0	53010	119.1	1000
0	53037	119.2	1000
0	53088	119.3	1000
0	53114	119.4	1000
0	53162	119.5	1000
0	53188	119.6	1000
0	53240	119.7	1000
0	53266	119.8	1000
0	53315	119.9	1000
0	53342	120	1000
0	53391	120.1	1000
0	53416	120.2	1000
0	53467	120.3	1000
0	53494	120.4	1000
0	53544	120.5	1000
0	53569	120.6	1000
0	53618	120.7	1000
0	53643	120.8	1000
0	53693	120.9	1000
0	53719	121	1000
0	53769	121.1	1000
0	53794	121.2	1000
0	53845	121.3	1000
0	53870	121.4	1000
0	53919	121.5	1000
0	53945	121.6	1000
0	53994	121.7	1000
0	54020	121.8	1000
0	54068	121.9	1000
0	54093	122	1000
0	54143	122.1	1000
0	54169	122.2	1000
0	54218	122.3	1000
0	54244	122.4	1000
0	54293	122.5	1000
0	54321	122.6	1000
0	54370	122.7	1000
0	54399	122.8	1000
0	54448	122.9	1000
0	54475	123	1000
0	54527	123.1	1000
0	54554	123.2	1000
0	54602	123.3	1000
0	54628	123.4	1000
0	54677	123.5	1000
0	54706	123.6	1000
0	54756	123.7	1000
0	54782	123.8	1000
0	54834	123.9	1000
0	54861	124	1000
0	54909	124.1	1000
0	54935	124.2	1000
0	54984	124.3	1000
0	55011	124.4	1000
0	55059	124.5	1000
0	55085	124.6	1000
0	55134	124.7	1000
0	55161	124.8	1000
0	55210	124.9	1000
0	55236	125	1000
0	56254	125.1	1000
0	56279	125.2	1000
0	56327	125.3	1000
0	56352	125.4	1000
0	56400	125.5	1000
0	56425	125.6	1000
0	56475	125.7	1000
0	56504	125.8	1000
0	56555	125.9	1000
0	56580	126	1000
0	56628	126.1	1000
0	56653	126.2	1000
0	56701	126.3	1000
0	56729	126.4	1000
0	56777	126.5	1000
0	56803	126.6	1000
0	56852	126.7	1000
0	56878	126.8	1000
0	56928	126.9	1000
0	56953	127	1000
0	57002	127.1	1000
0	57027	127.2	1000
0	57077	127.3	1000
0	57103	127.4	1000
0	57152	127.5	1000
0	57179	127.6	1000
0	57227	127.7	1000
0	57256	127.8	1000
0	57304	127.9	1000
0	57329	128	1000
0	57378	128.1	1000
0	57405	128.2	1000
0	57453	128.3	1000
0	57482	128.4	1000
0	57533	128.5	1000
0	57561	128.6	1000
0	57612	128.7	1000
0	57639	128.8	1000
0	57688	128.9	1000
0	57713	129	1000
0	57761	129.1	1000
0	57786	129.2	1000
0	57836	129.3	1000
0	57861	129.4	1000
0	57910	129.5	1000
0	57936	129.6	1000
0	57985	129.7	1000
0	58011	129.8	1000
0	58060	129.9	1000
0	58087	130	1000
0	58143	130.1	1000
0	58170	130.2	1000
0	58218	130.3	1000
0	58244	130.4	1000
0	58292	130.5	1000
0	58320	130.6	1000
0	58370	130.7	1000
0	58397	130.8	1000
0	58446	130.9	1000
0	58472	131	1000
0	58522	131.1	1000
0	58552	131.2	1000
0	58601	131.3	1000
0	58627	131.4	1000
0	58677	131.5	1000
0	58703	131.6	1000
0	58754	131.7	1000
0	58779	131.8	1000
0	58828	131.9	1000
0	58854	132	1000
0	58904	132.1	1000
0	58929	132.2	1000
0	58981	132.3	1000
0	59007	132.4	1000
0	59058	132.5	1000
0	59087	132.6	1000
0	59138	132.7	1000
0	59163	132.8	1000
0	59213	132.9	1000
0	59240	133	1000
0	59288	133.1	1000
0	59314	133.2	1000
0	59363	133.3	1000
0	59389	133.4	1000
0	59439	133.5	1000
0	59465	133.6	1000
0	59517	133.7	1000
0	59544	133.8	1000
0	59593	133.9	1000
0	59619	134	1000
0	59669	134.1	1000
0	59694	134.2	1000
0	59744	134.3	1000
0	59769	134.4	1000
0	59820	134.5	1000
0	59845	134.6	1000
0	59897	134.7	1000
0	59922	134.8	1000
0	59972	134.9	1000
0	59998	135	1000
0	60047	135.1	1000
0	60073	135.2	1000
0	60122	135.3	1000
0	60148	135.4	1000
0	60197	135.5	1000
0	60222	135.6	1000
0	60270	135.7	1000
0	60296	135.8	1000
0	60345	135.9	1000
0	60372	136	1000
0	60420	136.1	1000
0	60446	136.2	1000
0	60497	136.3	1000
0	60523	136.4	1000
0	60573	136.5	1000
0	60599	136.6	1000
0	60647	136.7	1000
0	60673	136.8	1000
0	60724	136.9	1000
0	60749	137	1000
0	60800	137.1	1000
0	60827	137.2	1000
0	60876	137.3	1000
0	60902	137.4	1000
0	60952	137.5	1000
0	60978	137.6	1000
0	61028	137.7	1000
0	61053	137.8	1000
0	61102	137.9	1000
0	61128	138	1000
0	61180	138.1	1000
0	61206	138.2	1000
0	61254	138.3	1000
0	61280	138.4	1000
0	61329	138.5	1000
0	61354	138.6	1000
0	61405	138.7	1000
0	61430	138.8	1000
0	61481	138.9	1000
0	61509	139	1000
0	61558	139.1	1000
0	61583	139.2	1000
0	61633	139.3	1000
0	61659	139.4	1000
0	61708	139.5	1000
0	61733	139.6	1000
0	61782	139.7	1000
0	61807	139.8	1000
0	61856	139.9	1000
0	61881	140	1000
0	61929	140.1	1000
0	61954	140.2	1000
0	62002	140.3	1000
0	62029	140.4	1000
0	62078	140.5	1000
0	62104	140.6	1000
0	62154	140.7	1000
0	62182	140.8	1000
0	62230	140.9	1000
0	62255	141	1000
0	62304	141.1	1000
0	62329	141.2	1000
0	62380	141.3	1000
0	62405	141.4	1000
0	62455	141.5	1000
0	62480	141.6	1000
0	62529	141.7	1000
0	62556	141.8	1000
0	62606	141.9	1000
0	62634	142	1000
0	62684	142.1	1000
0	62711	142.2	1000
0	62760	142.3	1000
0	62786	142.4	1000
0	62835	142.5	1000
0	62862	142.6	1000
0	62910	142.7	1000
0	62935	142.8	1000
0	62986	142.9	1000
0	63012	143	1000
0	63060	143.1	1000
0	63087	143.2	1000
0	63137	143.3	1000
0	63162	143.4	1000
0	63210	143.5	1000
0	63236	143.6	1000
0	63287	143.7	1000
0	63312	143.8	1000
0	63360	143.9	1000
0	63387	144	1000
0	63439	144.1	1000
0	63467	144.2	1000
0	63516	144.3	1000
0	63543	144.4	1000
0	63591	144.5	1000
0	63616	144.6	1000
0	63666	144.7	1000
0	63693	144.8	1000
0	63741	144.9	1000
0	63767	145	1000
0	63816	145.1	1000
0	63843	145.2	1000
0	63891	145.3	1000
0	63918	145.4	1000
0	63968	145.5	1000
0	63994	145.6	1000
0	64043	145.7	1000
0	64070	145.8	1000
0	64118	145.9	1000
0	64147	146	1000
0	64196	146.1	1000
0	64223	146.2	1000
0	64272	146.3	1000
0	64298	146.4	1000
0	64348	146.5	1000
0	64376	146.6	1000
0	64425	146.7	1000
0	64451	146.8	1000
0	64501	146.9	1000
0	64527	147	1000
0	64575	147.1	1000
0	64602	147.2	1000
0	64650	147.3	1000
0	64675	147.4	1000
0	64723	147.5	1000
0	64751	147.6	1000
0	64800	147.7	1000
0	64825	147.8	1000
0	64874	147.9	1000
0	64899	148	1000
0	64948	148.1	1000
0	64974	148.2	1000
0	65024	148.3	1000
0	65050	148.4	1000
0	65100	148.5	1000
0	65127	148.6	1000
0	65177	148.7	1000
0	65203	148.8	1000
0	65252	148.9	1000
0	65277	149	1000
0	65325	149.1	1000
0	65351	149.2	1000
0	65401	149.3	1000
0	65427	149.4	1000
0	65477	149.5	1000
0	65502	149.6	1000
0	65550	149.7	1000
0	65575	149.8	1000
0	65624	149.9	1000
0	65652	150	1000
0	66189	150.1	1000
0	66217	150.2	1000
0	66265	150.3	1000
0	66294	150.4	1000
0	66343	150.5	1000
0	66370	150.6	1000
0	66419	150.7	1000
0	66448	150.8	1000
0	66497	150.9	1000
0	66522	151	1000
0	66571	151.1	1000
0	66596	151.2	1000
0	66645	151.3	1000
0	66670	151.4	1000
0	66720	151.5	1000
0	66745	151.6	1000
0	66793	151.7	1000
0	66819	151.8	1000
0	66869	151.9	1000
0	66894	152	1000
0	66944	152.1	1000
0	66969	152.2	1000
0	67018	152.3	1000
0	67043	152.4	1000
0	67094	152.5	1000
0	67123	152.6	1000
0	67172	152.7	1000
0	67198	152.8	1000
0	67246	152.9	1000
0	67272	153	1000
0	67321	153.1	1000
0	67349	153.2	1000
0	67399	153.3	1000
0	67424	153.4	1000
0	67472	153.5	1000
0	67498	153.6	1000
0	67550	153.7	1000
0	67578	153.8	1000
0	67627	153.9	1000
0	67654	154	1000
0	67702	154.1	1000
0	67728	154.2	1000
0	67778	154.3	1000
0	67804	154.4	1000
0	67852	154.5	1000
0	67877	154.6	1000
0	67928	154.7	1000
0	67955	154.8	1000
0	68004	154.9	1000
0	68030	155	1000
0	68078	155.1	1000
0	68105	155.2	1000
0	68153	155.3	1000
0	68179	155.4	1000
0	68229	155.5	1000
0	68256	155.6	1000
0	68306	155.7	1000
0	68334	155.8	1000
0	68383	155.9	1000
0	68409	156	1000
0	68460	156.1	1000
0	68488	156.2	1000
0	68536	156.3	1000
0	68564	156.4	1000
0	68615	156.5	1000
0	68642	156.6	1000
0	68690	156.7	1000
0	68716	156.8	1000
0	68767	156.9	1000
0	68796	157	1000
0	68844	157.1	1000
0	68870	157.2	1000
0	68919	157.3	1000
0	68944	157.4	1000
0	68993	157.5	1000
0	69019	157.6	1000
0	69069	157.7	1000
0	69096	157.8	1000
0	69147	157.9	1000
0	69172	158	1000
0	69220	158.1	1000
0	69245	158.2	1000
0	69296	158.3	1000
0	69322	158.4	1000
0	69370	158.5	1000
0	69396	158.6	1000
0	69445	158.7	1000
0	69473	158.8	1000
0	69521	158.9	1000
0	69547	159	1000
0	69596	159.1	1000
0	69622	159.2	1000
0	69670	159.3	1000
0	69696	159.4	1000
0	69746	159.5	1000
0	69771	159.6	1000
0	69821	159.7	1000
0	69846	159.8	1000
0	69895	159.9	1000
0	69921	160	1000
0	69970	160.1	1000
0	69997	160.2	1000
0	70048	160.3	1000
0	70073	160.4	1000
0	70122	160.5	1000
0	70147	160.6	1000
0	70196	160.7	1000
0	70223	160.8	1000
0	70273	160.9	1000
0	70300	161	1000
0	70350	161.1	1000
0	70378	161.2	1000
0	70426	161.3	1000
0	70451	161.4	1000
0	70500	161.5	1000
0	70529	161.6	1000
0	70577	161.7	1000
0	70602	161.8	1000
0	70650	161.9	1000
0	70678	162	1000
0	70730	162.1	1000
0	70756	162.2	1000
0	70806	162.3	1000
0	70834	162.4	1000
0	70885	162.5	1000
0	70910	162.6	1000
0	70958	162.7	1000
0	70983	162.8	1000
0	71031	162.9	1000
0	71057	163	1000
0	71107	163.1	1000
0	71132	163.2	1000
0	71182	163.3	1000
0	71207	163.4	1000
0	71256	163.5	1000
0	71282	163.6	1000
0	71332	163.7	1000
0	71358	163.8	1000
0	71409	163.9	1000
0	71435	164	1000
0	71483	164.1	1000
0	71509	164.2	1000
0	71558	164.3	1000
0	71583	164.4	1000
0	71632	164.5	1000
0	71660	164.6	1000
0	71711	164.7	1000
0	71738	164.8	1000
0	71790	164.9	1000
0	71818	165	1000
0	71867	165.1	1000
0	71893	165.2	1000
0	71944	165.3	1000
0	71971	165.4	1000
0	72023	165.5	1000
0	72048	165.6	1000
0	72097	165.7	1000
0	72123	165.8	1000
0	72171	165.9	1000
0	72196	166	1000
0	72246	166.1	1000
0	72272	166.2	1000
0	72322	166.3	1000
0	72349	166.4	1000
0	72398	166.5	1000
0	72423	166.6	1000
0	72474	166.7	1000
0	72501	166.8	1000
0	72551	166.9	1000
0	72577	167	1000
0	72626	167.1	1000
0	72652	167.2	1000
0	72702	167.3	1000
0	72728	167.4	1000
0	72776	167.5	1000
0	72802	167.6	1000
0	72851	167.7	1000
0	72879	167.8	1000
0	72930	167.9	1000
0	72955	168	1000
0	73004	168.1	1000
0	73031	168.2	1000
0	73080	168.3	1000
0	73106	168.4	1000
0	73154	168.5	1000
0	73179	168.6	1000
0	73228	168.7	1000
0	73257	168.8	1000
0	73305	168.9	1000
0	73332	169	1000
0	73380	169.1	1000
0	73405	169.2	1000
0	73454	169.3	1000
0	73479	169.4	1000
0	73530	169.5	1000
0	73556	169.6	1000
0	73606	169.7	1000
0	73631	169.8	1000
0	73680	169.9	1000
0	73706	170	1000
0	73755	170.1	1000
0	73781	170.2	1000
0	73830	170.3	1000
0	73855	170.4	1000
0	73903	170.5	1000
0	73929	170.6	1000
0	73979	170.7	1000
0	74009	170.8	1000
0	74059	170.9	1000
0	74086	171	1000
0	74136	171.1	1000
0	74162	171.2	1000
0	74210	171.3	1000
0	74236	171.4	1000
0	74286	171.5	1000
0	74312	171.6	1000
0	74361	171.7	1000
0	74388	171.8	1000
0	74437	171.9	1000
0	74465	172	1000
0	74514	172.1	1000
0	74539	172.2	1000
0	74589	172.3	1000
0	74616	172.4	1000
0	74666	172.5	1000
0	74692	172.6	1000
0	74743	172.7	1000
0	74770	172.8	1000
0	74819	172.9	1000
0	74844	173	1000
0	74892	173.1	1000
0	74919	173.2	1000
0	74970	173.3	1000
0	74997	173.4	1000
0	75050	173.5	1000
0	75075	173.6	1000
0	75124	173.7	1000
0	75151	173.8	1000
0	75199	173.9	1000
0	75224	174	1000
0	75274	174.1	1000
0	75301	174.2	1000
0	75350	174.3	1000
0	75375	174.4	1000
0	75423	174.5	1000
0	75450	174.6	1000
0	75501	174.7	1000
0	75526	174.8	1000
0	75575	174.9	1000
0	75602	175	1000
0	77215	175.1	1000
0	77577	175.2	1000
0	77956	175.3	1000
0	78321	175.4	1000
0	78710	175.5	1000
0	79063	175.6	1000
0	79450	175.7	1000
0	79812	175.8	1000
0	80191	175.9	1000
0	80553	176	1000
0	80941	176.1	1000
0	81294	176.2	1000
0	81680	176.3	1000
0	82041	176.4	1000
0	82419	176.5	1000
0	82782	176.6	1000
0	83133	176.6896	1000
0	83170	176.7	1000
0	83523	176.8	1000
0	83909	176.9	1000
0	84272	177	1000
0	84652	177.1	1000
0	85015	177.2	1000
0	85402	177.3	1000
0	85755	177.4	1000
0	86142	177.5	1000
0	86503	177.6	1000
0	86884	177.7	1000
0	87247	177.8	1000
0	87635	177.9	1000
0	87991	178	1000
0	88378	178.1	1000
0	88740	178.2	1000
0	89121	178.3	1000
0	89482	178.4	1000
0	89869	178.5	1000
0	90224	178.6	1000
0	90611	178.7	1000
0	90973	178.8	1000
0	91352	178.9	1000
0	91715	179	1000
0	92104	179.1	1000
0	92460	179.2	1000
0	92849	179.3	1000
0	93210	179.4	1000
0	93589	179.5	1000
0	93951	179.6	1000
0	94102	179.6344	1000
0	94339	179.7	1000
0	94695	179.8	1000
0	95082	179.9	1000
0	95447	180	1000
0	95828	180.1	1000
0	96191	180.2	1000
0	96580	180.3	1000
0	96935	180.4	1000
0	97326	180.5	1000
0	97687	180.6	1000
0	98066	180.7	1000
0	98428	180.8	1000
0	98815	180.9	1000
0	99169	181	1000
0	99556	181.1	1000
0	99920	181.2	1000
0	100300	181.3	1000
0	100661	181.4	1000
0	101048	181.5	1000
0	101401	181.6	1000
0	101788	181.7	1000
0	102149	181.8	1000
0	102527	181.9	1000
0	102890	182	1000
0	103278	182.1	1000
0	103635	182.2	1000
0	104023	182.3	1000
0	104385	182.4	1000
0	104765	182.5	1000
0	105107	182.5936	1000
0	105127	182.6	1000
0	105517	182.7	1000
0	105872	182.8	1000
0	106261	182.9	1000
0	106623	183	1000
0	107003	183.1	1000
0	107366	183.2	1000
0	107754	183.3	1000
0	108107	183.4	1000
0	108493	183.5	1000
0	108854	183.6	1000
0	109232	183.7	1000
0	109593	183.8	1000
0	109980	183.9	1000
0	110335	184	1000
0	110724	184.1	1000
0	111086	184.2	1000
0	111465	184.3	1000
0	111827	184.4	1000
0	112213	184.5	1000
0	112567	184.6	1000
0	112954	184.7	1000
0	113316	184.8	1000
0	113695	184.9	1000
0	114056	185	1000
0	114443	185.1	1000
0	114796	185.2	1000
0	115183	185.3	1000
0	115546	185.4	1000
0	115924	185.5	1000
0	116202	185.5744	1000
0	116287	185.6	1000
0	116675	185.7	1000
0	117031	185.8	1000
0	117420	185.9	1000
0	117781	186	1000
0	118161	186.1	1000
0	118523	186.2	1000
0	118910	186.3	1000
0	119264	186.4	1000
0	119650	186.5	1000
0	120011	186.6	1000
0	120389	186.7	1000
0	120752	186.8	1000
0	121139	186.9	1000
0	121493	187	1000
0	121880	187.1	1000
0	122242	187.2	1000
0	122623	187.3	1000
0	122985	187.4	1000
0	123371	187.5	1000
0	123725	187.6	1000
0	124111	187.7	1000
0	124477	187.8	1000
0	124856	187.9	1000
0	125218	188	1000
0	125605	188.1	1000
0	125959	188.2	1000
0	126346	188.3	1000
0	126708	188.4	1000
0	126937	188.4544	1000
0	127087	188.5	1000
0	127451	188.6	1000
0	127837	188.7	1000
0	128193	188.8	1000
0	128581	188.9	1000
0	128944	189	1000
0	129323	189.1	1000
0	129685	189.2	1000
0	130073	189.3	1000
0	130428	189.4	1000
0	130815	189.5	1000
0	131176	189.6	1000
0	131557	189.7	1000
0	131919	189.8	1000
0	132306	189.9	1000
0	132659	190	1000
0	133046	190.1	1000
0	133410	190.2	1000
0	133789	190.3	1000
0	134150	190.4	1000
0	134536	190.5	1000
0	134890	190.6	1000
0	135278	190.7	1000
0	135640	190.8	1000
0	136019	190.9	1000
0	136380	191	1000
0	136767	191.1	1000
0	137120	191.2	1000
0	137357	191.2552	1000
0	137506	191.3	1000
0	137868	191.4	1000
0	138246	191.5	1000
0	138607	191.6	1000
0	138994	191.7	1000
0	139348	191.8	1000
0	139736	191.9	1000
0	140099	192	1000
0	140477	192.1	1000
0	140838	192.2	1000
0	141225	192.3	1000
0	141578	192.4	1000
0	141965	192.5	1000
0	142327	192.6	1000
0	142706	192.7	1000
0	143067	192.8	1000
0	143454	192.9	1000
0	143807	193	1000
0	144194	193.1	1000
0	144555	193.2	1000
0	144934	193.3	1000
0	145297	193.4	1000
0	145684	193.5	1000
0	146038	193.6	1000
0	146424	193.7	1000
0	146786	193.8	1000
0	147166	193.9	1000
0	147528	194	1000
0	147882	194.0896	1000
1	0	0	1000
1	0	0	1000
1	0	0	1000
1	2741	0.1	1005
1	2788	0.2	1010
1	2855	0.3	1015
1	2902	0.4	1020
1	2969	0.5	1025
1	2996	0.6	1030
1	3023	0.7	1035
1	3090	0.8	1040
1	3157	0.9	1045
1	3244	1	1050
1	3331	1.1	1055
1	3358	1.2	1060
1	3405	1.3	1065
1	3452	1.4	1070
1	3499	1.5	1075
1	3546	1.6	1080
1	3593	1.7	1085
1	3640	1.8	1090
1	3667	1.9	1095
1	3694	2	1100
1	3821	2.1	1105
1	3868	2.2	1110
1	3935	2.3	1115
1	3982	2.4	1120
1	4049	2.5	1125
1	4096	2.6	1130
1	4163	2.7	1135
1	4230	2.8	1140
1	4297	2.9	1145
1	4344	3	1150
1	4391	3.1	1155
1	4458	3.2	1160
1	4505	3.3	1165
1	4552	3.4	1170
1	4599	3.5	1175
1	4626	3.6	1180
1	4673	3.7	1185
1	4720	3.8	1190
1	4747	3.9	1195
1	4814	4	1200
1	4861	4.1	1205
1	4968	4.2	1210
1	5035	4.3	1215
1	5102	4.4	1220
1	5129	4.5	1225
1	5176	4.6	1230
1	5263	4.7	1235
1	5290	4.8	1240
1	5317	4.9	1245
1	5364	5	1250
1	5411	5.1	1255
1	5458	5.2	1260
1	5505	5.3	1265
1	5532	5.4	1270
1	5579	5.5	1275
1	5626	5.6	1280
1	5653	5.7	1285
1	5680	5.8	1290
1	5707	5.9	1295
1	5754	6	1300
1	5861	6.1	1305
1	5888	6.2	1310
1	5915	6.3	1315
1	5942	6.4	1320
1	5969	6.5	1325
1	6056	6.6	1330
1	6083	6.7	1335
1	6130	6.8	1340
1	6217	6.9	1345
1	6284	7	1350
1	6311	7.1	1355
1	6378	7.2	1360
1	6485	7.3	1365
1	6512	7.4	1370
1	6559	7.5	1375
1	6626	7.6	1380
1	6673	7.7	1385
1	6740	7.8	1390
1	6767	7.9	1395
1	6794	8	1400
1	6841	8.1	1405
1	6868	8.2	1410
1	6915	8.3	1415
1	6962	8.4	1420
1	6989	8.5	1425
1	7016	8.6	1430
1	7083	8.7	1435
1	7150	8.8	1440
1	7197	8.9	1445
1	7244	9	1450
1	7291	9.1	1455
1	7318	9.2	1460
1	7385	9.3	1465
1	7452	9.4	1470
1	7499	9.5	1475
1	7546	9.6	1480
1	7593	9.7	1485
1	7660	9.8	1490
1	7687	9.9	1495
1	7714	10	1500
1	7781	10.1	1505
1	7808	10.2	1510
1	7835	10.3	1515
1	7862	10.4	1520
1	7889	10.5	1525
1	8056	10.6	1530
1	8123	10.7	1535
1	8190	10.8	1540
1	8217	10.9	1545
1	8264	11	1550
1	8351	11.1	1555
1	8378	11.2	1560
1	8425	11.3	1565
1	8472	11.4	1570
1	8499	11.5	1575
1	8546	11.6	1580
1	8593	11.7	1585
1	8700	11.8	1590
1	8747	11.9	1595
1	8774	12	1600
1	8801	12.1	1605
1	8848	12.2	1610
1	8895	12.3	1615
1	8922	12.4	1620
1	8949	12.5	1625
1	9016	12.6	1630
1	9063	12.7	1635
1	9110	12.8	1640
1	9217	12.9	1645
1	9324	13	1650
1	9371	13.1	1655
1	9438	13.2	1660
1	9465	13.3	1665
1	9532	13.4	1670
1	9599	13.5	1675
1	9626	13.6	1680
1	9653	13.7	1685
1	9800	13.8	1690
1	9847	13.9	1695
1	9914	14	1700
1	9961	14.1	1705
1	10048	14.2	1710
1	10115	14.3	1715
1	10162	14.4	1720
1	10229	14.5	1725
1	10316	14.6	1730
1	10343	14.7	1735
1	10390	14.8	1740
1	10417	14.9	1745
1	10484	15	1750
1	10511	15.1	1755
1	10558	15.2	1760
1	10585	15.3	1765
1	10632	15.4	1770
1	10699	15.5	1775
1	10762	15.6	1780
1	10853	15.7	1785
1	10900	15.8	1790
1	10927	15.9	1795
1	10954	16	1800
1	11001	16.1	1805
1	11028	16.2	1810
1	11095	16.3	1815
1	11162	16.4	1820
1	11189	16.5	1825
1	11236	16.6	1830
1	11283	16.7	1835
1	11350	16.8	1840
1	11437	16.9	1845
1	11484	17	1850
1	11551	17.1	1855
1	11598	17.2	1860
1	11665	17.3	1865
1	11692	17.4	1870
1	11719	17.5	1875
1	11826	17.6	1880
1	11853	17.7	1885
1	11880	17.8	1890
1	11927	17.9	1895
1	11974	18	1900
1	12021	18.1	1905
1	12068	18.2	1910
1	12095	18.3	1915
1	12122	18.4	1920
1	12189	18.5	1925
1	12256	18.6	1930
1	12383	18.7	1935
1	12430	18.8	1940
1	12517	18.9	1945
1	12604	19	1950
1	12691	19.1	1955
1	12718	19.2	1960
1	12805	19.3	1965
1	12872	19.4	1970
1	12899	19.5	1975
1	12926	19.6	1980
1	13013	19.7	1985
1	13060	19.8	1990
1	13087	19.9	1995
1	13154	20	2000
1	13181	20.1	2005
1	13228	20.2	2010
1	13275	20.3	2015
1	13322	20.4	2020
1	13369	20.5	2025
1	13416	20.6	2030
1	13483	20.7	2035
1	13530	20.8	2040
1	13597	20.9	2045
1	13640	21	2050
1	13671	21.1	2055
1	13758	21.2	2060
1	13805	21.3	2065
1	13832	21.4	2070
1	13879	21.5	2075
1	13926	21.6	2080
1	13973	21.7	2085
1	14060	21.8	2090
1	14107	21.9	2095
1	14154	22	2100
1	14181	22.1	2105
1	14248	22.2	2110
1	14335	22.3	2115
1	14402	22.4	2120
1	14489	22.5	2125
1	14556	22.6	2130
1	14583	22.7	2135
1	14610	22.8	2140
1	14657	22.9	2145
1	14684	23	2150
1	14731	23.1	2155
1	14758	23.2	2160
1	14821	23.3	2165
1	14892	23.4	2170
1	14939	23.5	2175
1	15006	23.6	2180
1	15073	23.7	2185
1	15100	23.8	2190
1	15143	23.9	2195
1	15234	24	2200
1	15261	24.1	2205
1	15308	24.2	2210
1	15335	24.3	2215
1	15402	24.4	2220
1	15449	24.5	2225
1	15496	24.6	2230
1	15583	24.7	2235
1	15610	24.8	2240
1	15657	24.9	2245
1	15705	25	2250
1	16027	25.0072	2250.36
1	18341	25.1	2255
1	18369	25.2	2260
1	18397	25.3	2265
1	18424	25.4	2270
1	18450	25.5	2275
1	18480	25.6	2280
1	18506	25.7	2285
1	18534	25.8	2290
1	18561	25.9	2295
1	18587	26	2300
1	18617	26.1	2305
1	18645	26.2	2310
1	18673	26.3	2315
1	18699	26.4	2320
1	18730	26.5	2325
1	18760	26.6	2330
1	18786	26.7	2335
1	18814	26.8	2340
1	18840	26.9	2345
1	18866	27	2350
1	18892	27.1	2355
1	18918	27.2	2360
1	18944	27.3	2365
1	18970	27.4	2370
1	18999	27.5	2375
1	19027	27.6	2380
1	19055	27.7	2385
1	19083	27.8	2390
1	19111	27.9	2395
1	19139	28	2400
1	19165	28.1	2405
1	19196	28.2	2410
1	19222	28.3	2415
1	19251	28.4	2420
1	19279	28.5	2425
1	19305	28.6	2430
1	19335	28.7	2435
1	19361	28.8	2440
1	19388	28.9	2445
1	19415	29	2450
1	19443	29.1	2455
1	19470	29.2	2460
1	19500	29.3	2465
1	19527	29.4	2470
1	19555	29.5	2475
1	19584	29.6	2480
1	19611	29.7	2485
1	19639	29.8	2490
1	19668	29.9	2495
1	19699	30	2500
1	19740	30.1	2505
1	19772	30.2	2510
1	19806	30.3	2515
1	19833	30.4	2520
1	19863	30.5	2525
1	19890	30.6	2530
1	19916	30.7	2535
1	19944	30.8	2540
1	19970	30.9	2545
1	19998	31	2550
1	20025	31.1	2555
1	20051	31.2	2560
1	20077	31.3	2565
1	20106	31.4	2570
1	20134	31.5	2575
1	20162	31.6	2580
1	20188	31.7	2585
1	20216	31.8	2590
1	20243	31.9	2595
1	20270	32	2600
1	20298	32.1	2605
1	20326	32.2	2610
1	20353	32.3	2615
1	20379	32.4	2620
1	20405	32.5	2625
1	20434	32.6	2630
1	20462	32.7	2635
1	20490	32.8	2640
1	20516	32.9	2645
1	20543	33	2650
1	20569	33.1	2655
1	20597	33.2	2660
1	20624	33.3	2665
1	20652	33.4	2670
1	20679	33.5	2675
1	20709	33.6	2680
1	20735	33.7	2685
1	20761	33.8	2690
1	20790	33.9	2695
1	20817	34	2700
1	20844	34.1	2705
1	20871	34.2	2710
1	20897	34.3	2715
1	20926	34.4	2720
1	20955	34.5	2725
1	20983	34.6	2730
1	21009	34.7	2735
1	21036	34.8	2740
1	21063	34.9	2745
1	21092	35	2750
1	21118	35.1	2755
1	21145	35.2	2760
1	21173	35.3	2765
1	21204	35.4	2770
1	21230	35.5	2775
1	21256	35.6	2780
1	21282	35.7	2785
1	21310	35.8	2790
1	21336	35.9	2795
1	21363	36	2800
1	21389	36.1	2805
1	21417	36.2	2810
1	21446	36.3	2815
1	21472	36.4	2820
1	21501	36.5	2825
1	21529	36.6	2830
1	21555	36.7	2835
1	21581	36.8	2840
1	21607	36.9	2845
1	21633	37	2850
1	21663	37.1	2855
1	21693	37.2	2860
1	21720	37.3	2865
1	21747	37.4	2870
1	21773	37.5	2875
1	21799	37.6	2880
1	21827	37.7	2885
1	21855	37.8	2890
1	21884	37.9	2895
1	21913	38	2900
1	21944	38.1	2905
1	21972	38.2	2910
1	21998	38.3	2915
1	22026	38.4	2920
1	22052	38.5	2925
1	22080	38.6	2930
1	22106	38.7	2935
1	22137	38.8	2940
1	22163	38.9	2945
1	22189	39	2950
1	22215	39.1	2955
1	22243	39.2	2960
1	22274	39.3	2965
1	22302	39.4	2970
1	22330	39.5	2975
1	22358	39.6	2980
1	22386	39.7	2985
1	22415	39.8	2990
1	22441	39.9	2995
1	22467	40	3000
1	22499	40.1	3005
1	22531	40.2	3010
1	22560	40.3	3015
1	22588	40.4	3020
1	22619	40.5	3025
1	22649	40.6	3030
1	22680	40.7	3035
1	22709	40.8	3040
1	22735	40.9	3045
1	22766	41	3050
1	22792	41.1	3055
1	22820	41.2	3060
1	22849	41.3	3065
1	22875	41.4	3070
1	22903	41.5	3075
1	22929	41.6	3080
1	22956	41.7	3085
1	22983	41.8	3090
1	23011	41.9	3095
1	23037	42	3100
1	23067	42.1	3105
1	23095	42.2	3110
1	23122	42.3	3115
1	23148	42.4	3120
1	23174	42.5	3125
1	23201	42.6	3130
1	23230	42.7	3135
1	23258	42.8	3140
1	23285	42.9	3145
1	23311	43	3150
1	23344	43.1	3155
1	23372	43.2	3160
1	23398	43.3	3165
1	23425	43.4	3170
1	23455	43.5	3175
1	23483	43.6	3180
1	23511	43.7	3185
1	23537	43.8	3190
1	23567	43.9	3195
1	23593	44	3200
1	23620	44.1	3205
1	23647	44.2	3210
1	23673	44.3	3215
1	23702	44.4	3220
1	23732	44.5	3225
1	23758	44.6	3230
1	23784	44.7	3235
1	23810	44.8	3240
1	23837	44.9	3245
1	23866	45	3250
1	23892	45.1	3255
1	23919	45.2	3260
1	23947	45.3	3265
1	23975	45.4	3270
1	24005	45.5	3275
1	24032	45.6	3280
1	24058	45.7	3285
1	24087	45.8	3290
1	24113	45.9	3295
1	24142	46	3300
1	24169	46.1	3305
1	24198	46.2	3310
1	24228	46.3	3315
1	24256	46.4	3320
1	24288	46.5	3325
1	24316	46.6	3330
1	24346	46.7	3335
1	24372	46.8	3340
1	24402	46.9	3345
1	24430	47	3350
1	24457	47.1	3355
1	24487	47.2	3360
1	24513	47.3	3365
1	24540	47.4	3370
1	24567	47.5	3375
1	24597	47.6	3380
1	24626	47.7	3385
1	24657	47.8	3390
1	24687	47.9	3395
1	24714	48	3400
1	24742	48.1	3405
1	24772	48.2	3410
1	24800	48.3	3415
1	24826	48.4	3420
1	24857	48.5	3425
1	24885	48.6	3430
1	24917	48.7	3435
1	24946	48.8	3440
1	24976	48.9	3445
1	25002	49	3450
1	25028	49.1	3455
1	25058	49.2	3460
1	25090	49.3	3465
1	25119	49.4	3470
1	25146	49.5	3475
1	25174	49.6	3480
1	25207	49.7	3485
1	25236	49.8	3490
1	25263	49.9	3495
1	25298	50	3500
1	26732	50.1	3505
1	26867	50.2	3510
1	26895	50.3	3515
1	26923	50.4	3520
1	26949	50.5	3525
1	26975	50.6	3530
1	27003	50.7	3535
1	27033	50.8	3540
1	27059	50.9	3545
1	27085	51	3550
1	27114	51.1	3555
1	27140	51.2	3560
1	27170	51.3	3565
1	27199	51.4	3570
1	27228	51.5	3575
1	27257	51.6	3580
1	27286	51.7	3585
1	27312	51.8	3590
1	27339	51.9	3595
1	27366	52	3600
1	27394	52.1	3605
1	27426	52.2	3610
1	27457	52.3	3615
1	27485	52.4	3620
1	27511	52.5	3625
1	27539	52.6	3630
1	27565	52.7	3635
1	27592	52.8	3640
1	27623	52.9	3645
1	27650	53	3650
1	27683	53.1	3655
1	27709	53.2	3660
1	27735	53.3	3665
1	27761	53.4	3670
1	27789	53.5	3675
1	27815	53.6	3680
1	27845	53.7	3685
1	27874	53.8	3690
1	27901	53.9	3695
1	27928	54	3700
1	27954	54.1	3705
1	27985	54.2	3710
1	28013	54.3	3715
1	28041	54.4	3720
1	28069	54.5	3725
1	28095	54.6	3730
1	28122	54.7	3735
1	28149	54.8	3740
1	28176	54.9	3745
1	28203	55	3750
1	28235	55.1	3755
1	28263	55.2	3760
1	28295	55.3	3765
1	28321	55.4	3770
1	28350	55.5	3775
1	28379	55.6	3780
1	28408	55.7	3785
1	28436	55.8	3790
1	28462	55.9	3795
1	28489	56	3800
1	28518	56.1	3805
1	28552	56.2	3810
1	28581	56.3	3815
1	28607	56.4	3820
1	28636	56.5	3825
1	28662	56.6	3830
1	28688	56.7	3835
1	28717	56.8	3840
1	28748	56.9	3845
1	28774	57	3850
1	28802	57.1	3855
1	28830	57.2	3860
1	28856	57.3	3865
1	28887	57.4	3870
1	28913	57.5	3875
1	28939	57.6	3880
1	28967	57.7	3885
1	28997	57.8	3890
1	29023	57.9	3895
1	29049	58	3900
1	29076	58.1	3905
1	29106	58.2	3910
1	29137	58.3	3915
1	29163	58.4	3920
1	29192	58.5	3925
1	29222	58.6	3930
1	29250	58.7	3935
1	29276	58.8	3940
1	29302	58.9	3945
1	29329	59	3950
1	29355	59.1	3955
1	29383	59.2	3960
1	29410	59.3	3965
1	29440	59.4	3970
1	29466	59.5	3975
1	29495	59.6	3980
1	29521	59.7	3985
1	29555	59.8	3990
1	29582	59.9	3995
1	29609	60	4000
1	29638	60.1	4005
1	29664	60.2	4010
1	29690	60.3	4015
1	29718	60.4	4020
1	29747	60.5	4025
1	29777	60.6	4030
1	29804	60.7	4035
1	29832	60.8	4040
1	29858	60.9	4045
1	29886	61	4050
1	29913	61.1	4055
1	29940	61.2	4060
1	29970	61.3	4065
1	30001	61.4	4070
1	30029	61.5	4075
1	30055	61.6	4080
1	30083	61.7	4085
1	30110	61.8	4090
1	30138	61.9	4095
1	30166	62	4100
1	30193	62.1	4105
1	30221	62.2	4110
1	30249	62.3	4115
1	30279	62.4	4120
1	30305	62.5	4125
1	30333	62.6	4130
1	30360	62.7	4135
1	30389	62.8	4140
1	30418	62.9	4145
1	30444	63	4150
1	30472	63.1	4155
1	30499	63.2	4160
1	30526	63.3	4165
1	30553	63.4	4170
1	30581	63.5	4175
1	30607	63.6	4180
1	30633	63.7	4185
1	30659	63.8	4190
1	30686	63.9	4195
1	30715	64	4200
1	30751	64.1	4205
1	30780	64.2	4210
1	30809	64.3	4215
1	30836	64.4	4220
1	30865	64.5	4225
1	30901	64.6	4230
1	30931	64.7	4235
1	30957	64.8	4240
1	30985	64.9	4245
1	31017	65	4250
1	31043	65.1	4255
1	31071	65.2	4260
1	31099	65.3	4265
1	31127	65.4	4270
1	31153	65.5	4275
1	31180	65.6	4280
1	31208	65.7	4285
1	31238	65.8	4290
1	31267	65.9	4295
1	31294	66	4300
1	31323	66.1	4305
1	31351	66.2	4310
1	31377	66.3	4315
1	31406	66.4	4320
1	31433	66.5	4325
1	31461	66.6	4330
1	31491	66.7	4335
1	31519	66.8	4340
1	31551	66.9	4345
1	31577	67	4350
1	31603	67.1	4355
1	31629	67.2	4360
1	31659	67.3	4365
1	31687	67.4	4370
1	31714	67.5	4375
1	31743	67.6	4380
1	31774	67.7	4385
1	31807	67.8	4390
1	31839	67.9	4395
1	31870	68	4400
1	31899	68.1	4405
1	31926	68.2	4410
1	31952	68.3	4415
1	31979	68.4	4420
1	32007	68.5	4425
1	32034	68.6	4430
1	32062	68.7	4435
1	32090	68.8	4440
1	32119	68.9	4445
1	32413	69	4450
1	32440	69.1	4455
1	32466	69.2	4460
1	32491	69.3	4465
1	32519	69.4	4470
1	32545	69.5	4475
1	32571	69.6	4480
1	32597	69.7	4485
1	32623	69.8	4490
1	32649	69.9	4495
1	32676	70	4500
1	32703	70.1	4505
1	32728	70.2	4510
1	32754	70.3	4515
1	32780	70.4	4520
1	32807	70.5	4525
1	32833	70.6	4530
1	32859	70.7	4535
1	32885	70.8	4540
1	32910	70.9	4545
1	32935	71	4550
1	32961	71.1	4555
1	32986	71.2	4560
1	33011	71.3	4565
1	33036	71.4	4570
1	33061	71.5	4575
1	33087	71.6	4580
1	33114	71.7	4585
1	33143	71.8	4590
1	33168	71.9	4595
1	33194	72	4600
1	33219	72.1	4605
1	33246	72.2	4610
1	33273	72.3	4615
1	33299	72.4	4620
1	33324	72.5	4625
1	33350	72.6	4630
1	33375	72.7	4635
1	33404	72.8	4640
1	33429	72.9	4645
1	33456	73	4650
1	33481	73.1	4655
1	33506	73.2	4660
1	33532	73.3	4665
1	33557	73.4	4670
1	33583	73.5	4675
1	33610	73.6	4680
1	33636	73.7	4685
1	33661	73.8	4690
1	33687	73.9	4695
1	33713	74	4700
1	33740	74.1	4705
1	33766	74.2	4710
1	33792	74.3	4715
1	33817	74.4	4720
1	33843	74.5	4725
1	33869	74.6	4730
1	33895	74.7	4735
1	33920	74.8	4740
1	33946	74.9	4745
1	33973	75	4750
1	35369	75.1	4755
1	35395	75.2	4760
1	35445	75.3	4765
1	35470	75.4	4770
1	35518	75.5	4775
1	35546	75.6	4780
1	35592	75.7	4785
1	35621	75.8	4790
1	35666	75.9	4795
1	35692	76	4800
1	35737	76.1	4805
1	35763	76.2	4810
1	35808	76.3	4815
1	35835	76.4	4820
1	35881	76.5	4825
1	35907	76.6	4830
1	35954	76.7	4835
1	35981	76.8	4840
1	36027	76.9	4845
1	36053	77	4850
1	36099	77.1	4855
1	36127	77.2	4860
1	36174	77.3	4865
1	36200	77.4	4870
1	36246	77.5	4875
1	36272	77.6	4880
1	36319	77.7	4885
1	36344	77.8	4890
1	36390	77.9	4895
1	36418	78	4900
1	36463	78.1	4905
1	36489	78.2	4910
1	36536	78.3	4915
1	36563	78.4	4920
1	36609	78.5	4925
1	36636	78.6	4930
1	36682	78.7	4935
1	36712	78.8	4940
1	36758	78.9	4945
1	36783	79	4950
1	36830	79.1	4955
1	36855	79.2	4960
1	36902	79.3	4965
1	36928	79.4	4970
1	36976	79.5	4975
1	37003	79.6	4980
1	37050	79.7	4985
1	37075	79.8	4990
1	37120	79.9	4995
1	37148	80	5000
1	37194	80.1	5005
1	37220	80.2	5010
1	37266	80.3	5015
1	37292	80.4	5020
1	37339	80.5	5025
1	37364	80.6	5030
1	37410	80.7	5035
1	37436	80.8	5040
1	37483	80.9	5045
1	37510	81	5050
1	37558	81.1	5055
1	37585	81.2	5060
1	37630	81.3	5065
1	37657	81.4	5070
1	37703	81.5	5075
1	37730	81.6	5080
1	37777	81.7	5085
1	37805	81.8	5090
1	37851	81.9	5095
1	37878	82	5100
1	37926	82.1	5105
1	37952	82.2	5110
1	37998	82.3	5115
1	38024	82.4	5120
1	38070	82.5	5125
1	38098	82.6	5130
1	38146	82.7	5135
1	38171	82.8	5140
1	38216	82.9	5145
1	38242	83	5150
1	38289	83.1	5155
1	38314	83.2	5160
1	38359	83.3	5165
1	38384	83.4	5170
1	38429	83.5	5175
1	38457	83.6	5180
1	38505	83.7	5185
1	38531	83.8	5190
1	38577	83.9	5195
1	38603	84	5200
1	38650	84.1	5205
1	38675	84.2	5210
1	38721	84.3	5215
1	38749	84.4	5220
1	38795	84.5	5225
1	38821	84.6	5230
1	38866	84.7	5235
1	38891	84.8	5240
1	38937	84.9	5245
1	38963	85	5250
1	39010	85.1	5255
1	39038	85.2	5260
1	39086	85.3	5265
1	39112	85.4	5270
1	39157	85.5	5275
1	39183	85.6	5280
1	39230	85.7	5285
1	39257	85.8	5290
1	39302	85.9	5295
1	39328	86	5300
1	39374	86.1	5305
1	39399	86.2	5310
1	39445	86.3	5315
1	39471	86.4	5320
1	39520	86.5	5325
1	39547	86.6	5330
1	39595	86.7	5335
1	39620	86.8	5340
1	39668	86.9	5345
1	39693	87	5350
1	39739	87.1	5355
1	39766	87.2	5360
1	39812	87.3	5365
1	39839	87.4	5370
1	39886	87.5	5375
1	39914	87.6	5380
1	39960	87.7	5385
1	39986	87.8	5390
1	40031	87.9	5395
1	40057	88	5400
1	40106	88.1	5405
1	40132	88.2	5410
1	40179	88.3	5415
1	40209	88.4	5420
1	40254	88.5	5425
1	40283	88.6	5430
1	40331	88.7	5435
1	40357	88.8	5440
1	40403	88.9	5445
1	40428	89	5450
1	40476	89.1	5455
1	40502	89.2	5460
1	40548	89.3	5465
1	40574	89.4	5470
1	40621	89.5	5475
1	40651	89.6	5480
1	40698	89.7	5485
1	40724	89.8	5490
1	40772	89.9	5495
1	40800	90	5500
1	40846	90.1	5505
1	40872	90.2	5510
1	40917	90.3	5515
1	40942	90.4	5520
1	40989	90.5	5525
1	41015	90.6	5530
1	41061	90.7	5535
1	41087	90.8	5540
1	41133	90.9	5545
1	41158	91	5550
1	41205	91.1	5555
1	41232	91.2	5560
1	41278	91.3	5565
1	41304	91.4	5570
1	41350	91.5	5575
1	41376	91.6	5580
1	41421	91.7	5585
1	41448	91.8	5590
1	41496	91.9	5595
1	41523	92	5600
1	41570	92.1	5605
1	41596	92.2	5610
1	41642	92.3	5615
1	41668	92.4	5620
1	41713	92.5	5625
1	41741	92.6	5630
1	41786	92.7	5635
1	41811	92.8	5640
1	41858	92.9	5645
1	41884	93	5650
1	41931	93.1	5655
1	41958	93.2	5660
1	42005	93.3	5665
1	42030	93.4	5670
1	42077	93.5	5675
1	42103	93.6	5680
1	42148	93.7	5685
1	42174	93.8	5690
1	42221	93.9	5695
1	42246	94	5700
1	42293	94.1	5705
1	42318	94.2	5710
1	42364	94.3	5715
1	42390	94.4	5720
1	42437	94.5	5725
1	42462	94.6	5730
1	42509	94.7	5735
1	42534	94.8	5740
1	42580	94.9	5745
1	42608	95	5750
1	42655	95.1	5755
1	42680	95.2	5760
1	42725	95.3	5765
1	42751	95.4	5770
1	42797	95.5	5775
1	42823	95.6	5780
1	42870	95.7	5785
1	42896	95.8	5790
1	42941	95.9	5795
1	42970	96	5800
1	43015	96.1	5805
1	43041	96.2	5810
1	43088	96.3	5815
1	43114	96.4	5820
1	43160	96.5	5825
1	43185	96.6	5830
1	43231	96.7	5835
1	43257	96.8	5840
1	43304	96.9	5845
1	43330	97	5850
1	43376	97.1	5855
1	43401	97.2	5860
1	43446	97.3	5865
1	43472	97.4	5870
1	43519	97.5	5875
1	43545	97.6	5880
1	43591	97.7	5885
1	43618	97.8	5890
1	43664	97.9	5895
1	43691	98	5900
1	43737	98.1	5905
1	43764	98.2	5910
1	43810	98.3	5915
1	43836	98.4	5920
1	43881	98.5	5925
1	43907	98.6	5930
1	43954	98.7	5935
1	43980	98.8	5940
1	44026	98.9	5945
1	44053	99	5950
1	44099	99.1	5955
1	44124	99.2	5960
1	44169	99.3	5965
1	44196	99.4	5970
1	44243	99.5	5975
1	44270	99.6	5980
1	44318	99.7	5985
1	44344	99.8	5990
1	44389	99.9	5995
1	44415	100	6000
1	45775	100.1	6005
1	45800	100.2	6010
1	45849	100.3	6015
1	45876	100.4	6020
1	45925	100.5	6025
1	45950	100.6	6030
1	45999	100.7	6035
1	46024	100.8	6040
1	46074	100.9	6045
1	46099	101	6050
1	46149	101.1	6055
1	46174	101.2	6060
1	46225	101.3	6065
1	46252	101.4	6070
1	46301	101.5	6075
1	46327	101.6	6080
1	46377	101.7	6085
1	46403	101.8	6090
1	46453	101.9	6095
1	46480	102	6100
1	46528	102.1	6105
1	46554	102.2	6110
1	46604	102.3	6115
1	46631	102.4	6120
1	46682	102.5	6125
1	46708	102.6	6130
1	46757	102.7	6135
1	46783	102.8	6140
1	46832	102.9	6145
1	46859	103	6150
1	46908	103.1	6155
1	46933	103.2	6160
1	46981	103.3	6165
1	47009	103.4	6170
1	47058	103.5	6175
1	47086	103.6	6180
1	47134	103.7	6185
1	47160	103.8	6190
1	47210	103.9	6195
1	47236	104	6200
1	47285	104.1	6205
1	47311	104.2	6210
1	47360	104.3	6215
1	47387	104.4	6220
1	47437	104.5	6225
1	47466	104.6	6230
1	47515	104.7	6235
1	47541	104.8	6240
[...]
298	34952	75.036	1
298	35029	75.0384	1
298	35224	75.0672	1
298	44448	100	1
299	16186	25.01	1
299	16543	25.0124	0.75
299	16783	25.0148	1
300	16251	25.01	1
300	16673	25.0124	1
300	34208	75.0024	1
300	34252	75.0048	0.625
300	34322	75.0072	0.75
300	34377	75.0096	0.875
300	34426	75.012	1
300	55453	125.0048	1
301	16253	25.01	1
301	25509	50.0024	1
301	25630	50.0072	1
301	26011	50.024	1
301	34196	75.0024	1
301	34251	75.0048	0.29166666666667
301	34321	75.0072	0.33333333333333
301	34376	75.0096	0.375
301	34425	75.012	0.41666666666667
301	34466	75.0144	0.45833333333333
301	34512	75.0168	0.5
301	34559	75.0192	0.54166666666667
301	34606	75.0216	0.58333333333333
301	34652	75.024	0.625
301	34706	75.0264	0.66666666666667
301	34772	75.0288	0.70833333333333
301	34842	75.0312	0.75
301	34898	75.0336	0.79166666666667
301	34949	75.036	0.83333333333333
301	35002	75.0384	0.875
301	35052	75.0408	0.91666666666667
301	35092	75.0432	0.95833333333333
301	35122	75.0456	1
301	44869	100.0144	1
301	55269	125	1
301	55341	125.0024	1
301	55437	125.0048	1
301	55491	125.0072	0.74358974358974
301	55542	125.0096	0.76923076923077
301	55615	125.012	0.79487179487179
301	55675	125.0144	0.82051282051282
301	55740	125.0168	0.84615384615385
301	55800	125.0192	0.87179487179487
301	55874	125.0216	0.8974358974359
301	55933	125.024	0.92307692307692
301	55977	125.0264	0.94871794871795
301	56022	125.0288	0.97435897435897
301	56054	125.0312	1
302	16263	25.01	1
302	16539	25.0124	0
302	16779	25.0148	0
302	34844	75.0312	0
302	35005	75.0384	0
302	35057	75.0408	0
302	35234	75.0696	0
302	44504	100.0024	0
303	16289	25.01	1
303	16309	25.01	2
303	16543	25.0124	1
303	16783	25.0148	0
303	16910	25.0172	0
304	16313	25.01	1
304	17689	25.048	1
304	25613	50.0072	1
304	35335	75.084	1
304	35362	75.0864	1
304	66161	150.0624	1
304	76675	175.036	1
304	76719	175.0384	1
305	16347	25.01	1
305	44546	100.0024	1
305	45304	100.0408	1
305	45389	100.0456	1
305	55596	125.0096	1
305	55722	125.0144	1
305	76407	175.024	1
305	76465	175.0264	1
306	16348	25.01	1
306	17508	25.0432	1
306	17538	25.0456	1
306	25367	50	1
306	25406	50.0024	0.20689655172414
306	25518	50.0048	0.23333333333333
306	25583	50.0072	0.25
306	25638	50.0096	0.27272727272727
306	25693	50.012	0.27027027027027
306	25749	50.0144	0.28205128205128
306	25808	50.0168	0.3
306	25869	50.0192	0.30952380952381
306	25925	50.0216	0.32558139534884
306	25974	50.024	0.34090909090909
306	26027	50.0264	0.35555555555556
306	26083	50.0288	0.3695652173913
306	26129	50.0312	0.38297872340426
306	26167	50.0336	0.39583333333333
306	26202	50.036	0.4
306	26235	50.0384	0.41176470588235
306	26272	50.0408	0.41509433962264
306	26310	50.0432	0.41818181818182
306	26347	50.0456	0.42857142857143
306	26372	50.048	0.44642857142857
306	26400	50.0504	0.46428571428571
306	26430	50.0528	0.48214285714286
306	26458	50.0552	0.5
306	26480	50.0576	0.51785714285714
306	26495	50.06	0.53571428571429
306	26510	50.0624	0.55357142857143
306	26534	50.0648	0.57142857142857
306	26549	50.0672	0.58928571428571
306	26557	50.0696	0.60714285714286
306	26567	50.072	0.625
306	26575	50.0744	0.64285714285714
306	26588	50.0768	0.66071428571429
306	26600	50.0792	0.67857142857143
306	26614	50.0816	0.69642857142857
306	26623	50.084	0.71428571428571
306	26627	50.0864	0.73214285714286
306	26648	50.0888	0.75
306	26666	50.0912	0.76785714285714
306	26687	50.0936	0.78571428571429
306	26704	50.096	0.80357142857143
306	26722	50.0984	0.82142857142857
306	26757	50.1008	0.83928571428571
306	26764	50.1032	0.85714285714286
306	26771	50.1056	0.875
306	26787	50.108	0.89285714285714
306	26795	50.1104	0.91071428571429
306	26807	50.1128	0.92857142857143
306	26825	50.1152	0.94642857142857
306	26838	50.1176	0.96428571428571
306	26846	50.12	0.98214285714286
306	26856	50.1224	1
306	56007	125.0264	1
306	56179	125.0408	1
306	75973	175.0048	1
307	16352	25.01	1
307	16457	25.012	0
307	16691	25.0144	0
307	16851	25.0168	0
307	18039	25.0552	0
307	18122	25.06	0
307	18147	25.0624	0
307	18180	25.0672	0
307	18244	25.0744	0
307	18264	25.0768	0
307	18315	25.0888	0
307	18330	25.0912	0
307	44688	100.0072	0
307	76426	175.0264	0
307	76650	175.036	0
307	77133	175.0816	0
308	16355	25.01	1
308	16489	25.012	2
308	17100	25.024	1
308	17166	25.0264	0
308	17225	25.0288	0
308	17710	25.048	1
308	17724	25.048	2
308	17813	25.0504	1
308	17948	25.0528	0
308	18034	25.0552	0
308	25596	50.0072	0
309	16442	25.012	0
309	16693	25.0144	0
309	16844	25.0168	0
309	17665	25.048	1
309	18230	25.072	2
309	18334	25.0936	1
309	18337	25.096	0
309	18340	25.0984	0
309	34775	75.0288	0
309	34846	75.0312	0
309	34953	75.036	0
309	35006	75.0384	0
309	35124	75.0456	0
309	35161	75.0504	0
309	35251	75.072	0
309	35347	75.0864	0
309	35366	75.0888	0
309	55480	125.0072	0
309	56118	125.036	0
309	56143	125.0384	0
310	16491	25.012	1
310	16724	25.0144	1
310	16878	25.0168	1
310	17050	25.0216	1
310	17107	25.024	1
310	17171	25.0264	1
310	17602	25.048	1
310	17823	25.0504	1
310	25465	50.0024	1
310	25528	50.0048	1
310	34107	75	1
311	16532	25.0124	0
311	16803	25.0148	0
311	17113	25.024	0
311	17236	25.0288	0
311	17282	25.0312	0
311	17329	25.0336	0
311	25535	50.0048	0
311	25762	50.0144	0
311	25821	50.0168	0
311	44844	100.0144	0
311	45070	100.0288	0
311	45144	100.0336	0
312	16550	25.0124	0
312	16802	25.0148	0
312	34467	75.0144	0
312	55493	125.0072	0
313	16552	25.0124	0
313	25536	50.0048	0
313	25650	50.0096	0
313	26036	50.0264	0
313	35146	75.048	0
313	44886	100.0168	0
313	55318	125.0024	0
313	55399	125.0048	0
313	56084	125.0336	0
314	16568	25.0124	0
314	17841	25.0504	0
314	25645	50.0096	0
314	35351	75.0864	0
314	35368	75.0888	0
314	66169	150.0648	0
314	76695	175.0384	0
314	76739	175.0408	0
315	16577	25.0124	0
315	44595	100.0048	0
315	45320	100.0432	0
315	45410	100.048	0
315	55627	125.012	0
315	55750	125.0168	0
315	76427	175.0264	0
315	76490	175.0288	0
316	16578	25.0124	0
316	17518	25.0456	0
316	17553	25.048	0
316	26864	50.1248	0
316	56028	125.0288	0
316	56194	125.0432	0
316	75998	175.0072	0
317	16694	25.0144	0
317	16845	25.0168	0
317	16944	25.0192	0
317	17230	25.0288	0
317	17673	25.048	1
317	17823	25.0504	0
317	17954	25.0528	0
317	25589	50.0072	0
317	34148	75.0024	0
318	17605	25.048	1
318	17825	25.0504	1
318	18002	25.0528	1
318	18190	25.0672	1
318	25739	50.012	1
318	25970	50.0216	1
318	26719	50.096	1
318	32169	68.91	1
318	32301	68.9124	0.90909090909091
318	32367	68.9148	1
318	34644	75.0216	1
318	34692	75.024	1
318	55791	125.0168	1
318	55862	125.0192	1
318	75638	175	1
318	75775	175.0024	0.62962962962963
318	75874	175.0048	0.66666666666667
318	75978	175.0072	0.7037037037037
318	76034	175.0096	0.71428571428571
318	76093	175.012	0.7
318	76152	175.0144	0.70967741935484
318	76215	175.0168	0.71875
318	76278	175.0192	0.68571428571429
318	76325	175.0216	0.69444444444444
318	76363	175.024	0.68421052631579
318	76414	175.0264	0.675
318	76476	175.0288	0.66666666666667
318	76528	175.0312	0.65909090909091
318	76581	175.0336	0.68181818181818
318	76637	175.036	0.68888888888889
318	76686	175.0384	0.68085106382979
318	76730	175.0408	0.70212765957447
318	76778	175.0432	0.70833333333333
318	76812	175.0456	0.71428571428571
318	76836	175.048	0.72
318	76866	175.0504	0.74
318	76889	175.0528	0.76
318	76905	175.0552	0.78
318	76920	175.0576	0.8
318	76944	175.06	0.82
318	76965	175.0624	0.84
318	76987	175.0648	0.86
318	77010	175.0672	0.88
318	77027	175.0696	0.9
318	77045	175.072	0.92
318	77064	175.0744	0.94
318	77086	175.0768	0.96
318	77106	175.0792	0.98
318	77128	175.0816	1
319	17653	25.048	1
319	17825	25.0504	0
319	17956	25.0528	0
319	18036	25.0552	0
319	18209	25.0696	0
319	25761	50.0144	0
319	25985	50.024	0
319	26726	50.0984	0
319	32198	68.91	1
319	32213	68.91	2
319	32301	68.9124	1
319	32367	68.9148	0
319	32396	68.9172	0
319	34660	75.024	0
319	34716	75.0264	0
319	55809	125.0192	0
319	55888	125.0216	0
319	77154	175.084	0
320	17679	25.048	1
320	17836	25.0504	1
320	65978	150.0408	1
320	75714	175	1
320	75787	175.0024	0.75
320	75881	175.0048	0.77777777777778
320	75984	175.0072	0.88888888888889
320	76039	175.0096	1
321	17699	25.048	1
321	17836	25.0504	0
321	17960	25.0528	0
321	65989	150.0432	0
321	76098	175.012	0
322	18108	25.0576	1
322	18173	25.0648	1
322	18257	25.0744	1
322	18324	25.0888	1
322	34190	75.0024	1
322	34304	75.0048	1
322	34357	75.0072	1
322	34406	75.0096	1
322	34544	75.0168	1
322	34594	75.0192	1
322	34634	75.0216	1
322	34680	75.024	1
322	34814	75.0288	1
322	34881	75.0312	1
322	75848	175.0024	1
323	18123	25.06	0
323	18181	25.0672	0
323	18265	25.0768	0
323	18331	25.0912	0
323	34250	75.0048	0
323	34332	75.0072	0
323	34383	75.0096	0
323	34433	75.012	0
323	34565	75.0192	0
323	34613	75.0216	0
323	34658	75.024	0
323	34714	75.0264	0
323	34850	75.0312	0
323	34904	75.0336	0
323	75893	175.0048	0
324	25325	50	1
324	25400	50.0024	1
324	32210	68.91	1
324	32309	68.9124	1
324	34000	75	1
324	34171	75.0024	1
324	34276	75.0048	1
324	34323	75.0072	1
324	34378	75.0096	1
324	34533	75.0168	1
324	34580	75.0192	1
324	34609	75.0216	1
324	34654	75.024	1
324	34799	75.0288	1
324	34868	75.0312	1
324	34900	75.0336	1
324	34951	75.036	1
324	35004	75.0384	1
324	35054	75.0408	0.95238095238095
324	35094	75.0432	0.91304347826087
324	35123	75.0456	0.91666666666667
324	35147	75.048	0.92
324	35160	75.0504	0.96
324	35169	75.0528	1
324	56078	125.0312	1
324	75757	175	1
324	75828	175.0024	1
325	25332	50	1
325	25419	50.0024	1
325	25521	50.0048	0.4
325	25585	50.0072	0.5
325	25640	50.0096	0.6
325	25695	50.012	0.7
325	25751	50.0144	0.8
325	25810	50.0168	0.9
325	25871	50.0192	0.90909090909091
325	25926	50.0216	1
325	26158	50.0312	1
325	26196	50.0336	1
325	26522	50.0624	1
325	26636	50.0864	1
325	26678	50.0912	1
325	26781	50.1056	1
325	26804	50.1104	1
325	26819	50.1128	1
325	34047	75	1
325	34137	75.0024	0.95454545454545
325	34238	75.0048	1
325	66178	150.0648	1
326	25402	50.0024	0
326	25975	50.024	0
326	26174	50.0336	0
326	26209	50.036	0
326	26537	50.0648	0
326	26651	50.0888	0
326	26690	50.0936	0
326	26790	50.108	0
326	26810	50.1128	0
326	26828	50.1152	0
326	34316	75.0072	0
326	66187	150.0672	0
327	25417	50.0024	1
327	25520	50.0048	0.375
327	25584	50.0072	0.5
327	25639	50.0096	0.625
327	25694	50.012	0.75
327	25750	50.0144	0.875
327	25809	50.0168	1
327	26392	50.048	1
327	34033	75	1
327	34136	75.0024	0.35483870967742
327	34237	75.0048	0.375
327	34315	75.0072	0.39393939393939
327	34373	75.0096	0.41176470588235
327	34423	75.012	0.44117647058824
327	34464	75.0144	0.45714285714286
327	34510	75.0168	0.47222222222222
327	34557	75.0192	0.48648648648649
327	34604	75.0216	0.51351351351351
327	34650	75.024	0.54054054054054
327	34704	75.0264	0.56756756756757
327	34770	75.0288	0.59459459459459
327	34840	75.0312	0.62162162162162
327	34896	75.0336	0.64864864864865
327	34947	75.036	0.65789473684211
327	35000	75.0384	0.66666666666667
327	35050	75.0408	0.65853658536585
327	35091	75.0432	0.68292682926829
327	35121	75.0456	0.69047619047619
327	35145	75.048	0.69767441860465
327	35159	75.0504	0.70454545454545
327	35168	75.0528	0.71111111111111
327	35178	75.0552	0.71739130434783
327	35183	75.0576	0.73913043478261
327	35189	75.06	0.76086956521739
327	35197	75.0624	0.78260869565217
327	35204	75.0648	0.80434782608696
327	35211	75.0672	0.82608695652174
327	35230	75.0696	0.84782608695652
327	35250	75.072	0.8695652173913
327	35264	75.0744	0.89130434782609
327	35276	75.0768	0.91304347826087
327	35284	75.0792	0.93478260869565
327	35295	75.0816	0.95652173913043
327	35317	75.084	0.97826086956522
327	35346	75.0864	1
327	55390	125.0024	1
327	75745	175	1
327	75789	175.0024	1
328	25420	50.0024	1
328	25522	50.0048	0.3
328	25586	50.0072	0.36363636363636
328	25641	50.0096	0.45454545454545
328	25696	50.012	0.54545454545455
328	25752	50.0144	0.63636363636364
328	25811	50.0168	0.72727272727273
328	25872	50.0192	0.81818181818182
328	25927	50.0216	0.90909090909091
328	25976	50.024	1
328	26065	50.0264	1
328	26115	50.0288	1
328	26301	50.0408	1
328	26419	50.0504	1
328	26452	50.0528	1
328	26476	50.0552	1
328	56101	125.0336	1
328	56151	125.0384	1
328	56203	125.0432	1
329	25516	50.0048	0
329	32236	68.91	1
329	32309	68.9124	0
329	32375	68.9148	0
329	34132	75.0024	0
329	34244	75.0048	0
329	34427	75.012	0
329	34562	75.0192	0
329	34708	75.0264	0
329	34845	75.0312	0
329	35179	75.0552	0
329	56089	125.0336	0
329	75793	175.0024	0
329	75890	175.0048	0
330	25667	50.0096	1
330	25737	50.012	1
330	25779	50.0144	1
330	25816	50.0168	1
330	26009	50.024	1
330	32211	68.91	1
330	32310	68.9124	1
330	34447	75.012	1
330	34484	75.0144	1
330	34514	75.0168	1
330	34561	75.0192	1
330	34675	75.024	1
330	34731	75.0264	1
330	35193	75.06	1
330	35208	75.0648	1
330	55595	125.0096	1
330	55666	125.012	1
330	55717	125.0144	1
330	55841	125.0192	1
330	55916	125.0216	1
330	75628	175	1
331	25701	50.012	0
331	25760	50.0144	0
331	25875	50.0192	0
331	26035	50.0264	0
331	32237	68.91	1
331	32310	68.9124	0
331	32376	68.9148	0
331	34469	75.0144	0
331	34608	75.0216	0
331	34710	75.0264	0
331	34776	75.0288	0
331	35198	75.0624	0
331	35212	75.0672	0
331	55626	125.012	0
331	55683	125.0144	0
331	55749	125.0168	0
331	55883	125.0216	0
331	55939	125.024	0
331	75772	175.0024	0
332	25870	50.0192	0
332	26405	50.0504	0
332	35365	75.0888	0
332	55408	125.0048	0
332	75883	175.0048	0
333	25965	50.0216	1
333	25998	50.024	1
333	26420	50.0504	1
333	26435	50.0528	1
333	26459	50.0552	0.85714285714286
333	26481	50.0576	1
333	26660	50.0888	1
333	26853	50.12	1
333	55266	125	1
333	55332	125.0024	1
333	55421	125.0048	1
333	56109	125.0336	1
334	25984	50.024	0
334	26033	50.0264	0
334	26496	50.06	0
334	26668	50.0912	0
334	26858	50.1224	0
334	55317	125.0024	0
334	55396	125.0048	0
334	55486	125.0072	0
334	56119	125.036	0
335	26028	50.0264	0
335	26092	50.0288	0
335	26135	50.0312	0
335	26317	50.0432	0
335	26434	50.0528	0
335	26463	50.0552	0
335	26484	50.0576	0
335	56117	125.036	0
335	56165	125.0408	0
335	56217	125.0456	0
336	26075	50.0264	1
336	26121	50.0288	1
336	26306	50.0408	1
336	34745	75.0264	1
336	34815	75.0288	1
336	34934	75.0336	1
336	34986	75.036	1
336	35241	75.0696	1
336	35329	75.084	1
336	35359	75.0864	1
336	76264	175.0168	1
336	76724	175.0384	1
337	26095	50.0288	0
337	26137	50.0312	0
337	26318	50.0432	0
337	34780	75.0288	0
337	34851	75.0312	0
337	34956	75.036	0
337	35009	75.0384	0
337	35252	75.072	0
337	35349	75.0864	0
337	35367	75.0888	0
337	76291	175.0192	0
337	76740	175.0408	0
338	26336	50.0432	1
338	44540	100.0024	1
338	45249	100.0384	1
338	45301	100.0408	1
338	45386	100.0456	1
338	45494	100.0528	1
338	55583	125.0096	1
338	55716	125.0144	1
339	26353	50.0456	0
339	44593	100.0048	0
339	45270	100.0408	0
339	45319	100.0432	0
339	45409	100.048	0
339	45506	100.0552	0
339	55623	125.012	0
339	55748	125.0168	0
340	26368	50.0456	1
340	26389	50.048	1
340	26519	50.0624	1
340	26633	50.0864	1
340	26675	50.0912	1
340	26778	50.1056	1
340	26801	50.1104	1
340	26816	50.1128	1
340	26835	50.1152	1
340	55954	125.024	1
341	26376	50.048	0
341	26404	50.0504	0
341	26536	50.0648	0
341	26650	50.0888	0
341	26689	50.0936	0
341	26789	50.108	0
341	26809	50.1128	0
341	26827	50.1152	0
341	26840	50.1176	0
341	55980	125.0264	0
342	26492	50.0576	1
342	26504	50.06	1
342	26546	50.0648	1
342	26582	50.0744	1
342	26608	50.0792	1
342	26713	50.096	1
342	35260	75.072	1
342	35272	75.0744	1
342	55474	125.0048	1
342	55514	125.0072	1
342	55569	125.0096	1
342	55646	125.012	1
342	55701	125.0144	1
342	55769	125.0168	1
342	55826	125.0192	1
342	55905	125.0216	1
342	56154	125.0384	1
342	56206	125.0432	1
343	26498	50.06	0
343	26512	50.0624	0
343	26551	50.0672	0
343	26590	50.0768	0
343	26616	50.0816	0
343	26724	50.0984	0
343	35266	75.0744	0
343	35278	75.0768	0
343	55496	125.0072	0
343	55546	125.0096	0
343	55620	125.012	0
343	55678	125.0144	0
343	55745	125.0168	0
343	55803	125.0192	0
343	55878	125.0216	0
343	55936	125.024	0
343	56166	125.0408	0
343	56218	125.0456	0
344	26572	50.072	1
344	26729	50.0984	1
344	26761	50.1008	1
344	26768	50.1032	1
344	32229	68.91	1
345	26576	50.0744	0
345	26758	50.1008	0
345	26765	50.1032	0
345	26772	50.1056	0
345	32314	68.9124	0
346	34068	75	1
346	34227	75.0024	1
346	34284	75.0048	1
346	34356	75.0072	1
346	34487	75.0144	1
346	34536	75.0168	1
346	34583	75.0192	1
346	34632	75.0216	1
346	34733	75.0264	1
346	34802	75.0288	1
346	34871	75.0312	1
346	34924	75.0336	1
346	34977	75.036	1
346	35028	75.0384	1
346	35073	75.0408	1
346	35110	75.0432	1
346	35134	75.0456	1
346	35221	75.0672	1
346	35311	75.0816	1
346	35340	75.084	1
346	55272	125	1
346	55475	125.0048	1
346	55570	125.0096	1
346	65683	150	1
346	65766	150.012	1
346	65781	150.0144	1
346	65828	150.024	1
346	65849	150.0264	1
346	65866	150.0288	1
346	65886	150.0312	1
346	65901	150.0336	1
346	65921	150.036	0.97058823529412
346	65939	150.0384	0.97142857142857
346	65960	150.0408	0.94594594594595
346	65985	150.0432	0.94736842105263
346	66007	150.0456	0.94871794871795
346	66031	150.048	0.92682926829268
346	66054	150.0504	0.92857142857143
346	66081	150.0528	0.93023255813953
346	66102	150.0552	0.93181818181818
346	66127	150.0576	0.93333333333333
346	66138	150.06	0.95555555555556
346	66145	150.0624	0.97777777777778
346	66164	150.0648	1
347	34139	75.0024	0
347	34254	75.0048	0
347	34330	75.0072	0
347	34382	75.0096	0
347	34515	75.0168	0
347	34563	75.0192	0
347	34610	75.0216	0
347	34657	75.024	0
347	34778	75.0288	0
347	34848	75.0312	0
347	34902	75.0336	0
347	34954	75.036	0
347	35007	75.0384	0
347	35056	75.0408	0
347	35095	75.0432	0
347	35125	75.0456	0
347	35148	75.048	0
347	35233	75.0696	0
347	35322	75.084	0
347	35352	75.0864	0
347	55319	125.0024	0
347	55497	125.0072	0
347	55621	125.012	0
347	65720	150.0024	0
347	65776	150.0144	0
347	65789	150.0168	0
347	65843	150.0264	0
347	65861	150.0288	0
347	65880	150.0312	0
347	66184	150.0672	0
348	34358	75.0072	1
348	34407	75.0096	1
348	34488	75.0144	1
348	34537	75.0168	1
348	34734	75.0264	1
348	34803	75.0288	1
348	34978	75.036	1
348	35074	75.0408	1
348	65686	150	1
348	65721	150.0024	0.33333333333333
348	65735	150.0048	0.36363636363636
348	65741	150.0072	0.39393939393939
348	65747	150.0096	0.42424242424242
348	65760	150.012	0.45454545454545
348	65775	150.0144	0.48484848484848
348	65788	150.0168	0.51515151515152
348	65797	150.0192	0.54545454545455
348	65808	150.0216	0.57575757575758
348	65822	150.024	0.60606060606061
348	65842	150.0264	0.63636363636364
348	65860	150.0288	0.66666666666667
348	65879	150.0312	0.6969696969697
348	65900	150.0336	0.72727272727273
348	65920	150.036	0.75757575757576
348	65938	150.0384	0.78787878787879
348	65959	150.0408	0.81818181818182
348	65984	150.0432	0.84848484848485
348	66006	150.0456	0.87878787878788
348	66030	150.048	0.90909090909091
348	66053	150.0504	0.93939393939394
348	66080	150.0528	0.96969696969697
348	66101	150.0552	1
348	75847	175.0024	1
348	76072	175.0096	1
348	76201	175.0144	1
348	76524	175.0288	1
349	34384	75.0096	0
349	34434	75.012	0
349	34516	75.0168	0
349	34564	75.0192	0
349	34779	75.0288	0
349	34849	75.0312	0
349	35008	75.0384	0
349	35096	75.0432	0
349	66126	150.0576	0
349	75892	175.0048	0
349	76105	175.012	0
349	76229	175.0168	0
349	76540	175.0312	0
350	76066	175.0096	1
350	76125	175.012	1
350	76182	175.0144	1
350	76246	175.0168	1
350	76306	175.0192	1
350	76348	175.0216	1
350	76385	175.024	1
350	76440	175.0264	1
350	76506	175.0288	1
350	76553	175.0312	1
350	76607	175.0336	1
350	76664	175.036	1
350	76755	175.0408	1
350	76801	175.0432	1
350	76849	175.048	1
350	76879	175.0504	1
350	76913	175.0552	1
350	76928	175.0576	1
350	76955	175.06	1
350	76974	175.0624	1
350	76997	175.0648	1
350	77020	175.0672	1
350	77035	175.0696	1
350	77054	175.072	1
350	77073	175.0744	1
350	77096	175.0768	1
350	77115	175.0792	1
350	77138	175.0816	1
351	76102	175.012	0
351	76160	175.0144	0
351	76222	175.0168	0
351	76285	175.0192	0
351	76331	175.0216	0
351	76369	175.024	0
351	76420	175.0264	0
351	76482	175.0288	0
351	76535	175.0312	0
351	76587	175.0336	0
351	76643	175.036	0
351	76692	175.0384	0
351	76785	175.0432	0
351	76817	175.0456	0
351	76870	175.0504	0
351	76891	175.0528	0
351	76922	175.0576	0
351	76946	175.06	0
351	76967	175.0624	0
351	76989	175.0648	0
351	77012	175.0672	0
351	77029	175.0696	0
351	77047	175.072	0
351	77066	175.0744	0
351	77088	175.0768	0
351	77108	175.0792	0
351	77130	175.0816	0
351	77156	175.084	0

