version 2
run NetK-0-20200910-16:55:45-13656
attr configname NetK
attr datetime 20200910-16:55:45
attr experiment NetK
attr inifile omnetpp.ini
attr iterationvars "$seed=1, $alpha=5, $mVar=5, $LB=true, $LinkPre=true"
attr iterationvarsf seed=1,alpha=5,mVar=5,LB=true,LinkPre=true-
attr measurement "$seed=1, $alpha=5, $mVar=5, $LB=true, $LinkPre=true"
attr network networks.NetK
attr processid 13656
attr repetition 0
attr replication #0
attr resultdir results
attr runnumber 0
attr seedset 1
itervar LB true
itervar LinkPre true
itervar alpha 5
itervar mVar 5
itervar seed 1
param **.num_of_hosts 25
param **.num_of_terminals 2
param **.maxTerminalNumber 10
param *.rte[*].app.hasApp false
param *.terminal[*].radius 1500m
param *.terminal[*].frac 0.8
param **.maxX 10000m
param **.maxY 10000m
param **.minX 0m
param **.minY 0m
param *.rte[*].mobility.typename "\"TurtleMobility\""
param *.rte[*].mobilityType "\"TurtleMobility\""
param *.rte[0].mobility.turtleScript "xmldoc(\"mobility.xml\", \"movements//movement[@id='0']\")"
param *.rte[1].mobility.turtleScript "xmldoc(\"mobility.xml\", \"movements//movement[@id='1']\")"
param *.rte[2].mobility.turtleScript "xmldoc(\"mobility.xml\", \"movements//movement[@id='2']\")"
param *.rte[3].mobility.turtleScript "xmldoc(\"mobility.xml\", \"movements//movement[@id='3']\")"
param *.rte[4].mobility.turtleScript "xmldoc(\"mobility.xml\", \"movements//movement[@id='4']\")"
param *.rte[5].mobility.turtleScript "xmldoc(\"mobility.xml\", \"movements//movement[@id='5']\")"
param *.rte[6].mobility.turtleScript "xmldoc(\"mobility.xml\", \"movements//movement[@id='6']\")"
param *.rte[7].mobility.turtleScript "xmldoc(\"mobility.xml\", \"movements//movement[@id='7']\")"
param *.rte[8].mobility.turtleScript "xmldoc(\"mobility.xml\", \"movements//movement[@id='8']\")"
param *.rte[9].mobility.turtleScript "xmldoc(\"mobility.xml\", \"movements//movement[@id='9']\")"
param *.rte[10].mobility.turtleScript "xmldoc(\"mobility.xml\", \"movements//movement[@id='10']\")"
param *.rte[11].mobility.turtleScript "xmldoc(\"mobility.xml\", \"movements//movement[@id='11']\")"
param *.rte[12].mobility.turtleScript "xmldoc(\"mobility.xml\", \"movements//movement[@id='12']\")"
param *.rte[13].mobility.turtleScript "xmldoc(\"mobility.xml\", \"movements//movement[@id='13']\")"
param *.rte[14].mobility.turtleScript "xmldoc(\"mobility.xml\", \"movements//movement[@id='14']\")"
param *.rte[15].mobility.turtleScript "xmldoc(\"mobility.xml\", \"movements//movement[@id='15']\")"
param *.rte[16].mobility.turtleScript "xmldoc(\"mobility.xml\", \"movements//movement[@id='16']\")"
param *.rte[17].mobility.turtleScript "xmldoc(\"mobility.xml\", \"movements//movement[@id='17']\")"
param *.rte[18].mobility.turtleScript "xmldoc(\"mobility.xml\", \"movements//movement[@id='18']\")"
param *.rte[19].mobility.turtleScript "xmldoc(\"mobility.xml\", \"movements//movement[@id='19']\")"
param *.rte[20].mobility.turtleScript "xmldoc(\"mobility.xml\", \"movements//movement[@id='20']\")"
param *.rte[21].mobility.turtleScript "xmldoc(\"mobility.xml\", \"movements//movement[@id='21']\")"
param *.rte[22].mobility.turtleScript "xmldoc(\"mobility.xml\", \"movements//movement[@id='22']\")"
param *.rte[23].mobility.turtleScript "xmldoc(\"mobility.xml\", \"movements//movement[@id='23']\")"
param *.rte[24].mobility.turtleScript "xmldoc(\"mobility.xml\", \"movements//movement[@id='24']\")"
param *.terminal[*].mobility.typename "\"StationaryMobility\""
param *.terminal[*].mobilityType "\"StationaryMobility\""
param **.alpha 5
param **.m_var 5
param **.changeRate 25s
param **.rte[*].app.packetLength "1500 bytes"
param **.rte[*].app.sendIaTime exponential(150ms)
param **.rte[*].app.burst_next_event exponential(25s)
param **.rte[*].app.burst_next_interval exponential(40ms)
param **.rte[*].app.burst_size "intuniform (80,320)"
param **.rte[*].frameCapacity 7000
param **.datarate 5Mbps
param **.load_balance_mode true
param **.load_balance_link_prediction true
param **.load_threshold 85
param **.rte[*].appType "\"App\""
param **.rte[*].mobility.element[0].typename "\"StaticGridMobility\""
param **.rte[*].mobility.element[0].subjectModule "\"^\""
param **.rte[*].mobility.updateDisplayString false
param **.rte[*].mobility.element[*].updateDisplayString false
param **.rte[*].mobility.element[0].separationX 50m
param **.rte[*].mobility.element[0].separationY 50m
param **.rte[*].mobility.element[0].constraintAreaMinX 0m
param **.rte[*].mobility.element[0].constraintAreaMinY 0m
param **.rte[*].mobility.element[0].constraintAreaMinZ 0m
param **.rte[*].mobility.element[0].constraintAreaMaxX 1500m
param **.rte[*].mobility.element[0].constraintAreaMaxY 1000m
param **.rte[*].mobility.element[0].constraintAreaMaxZ 0m

scalar NetK.rte[0].grid x 1000
scalar NetK.rte[0].grid y 1000
scalar NetK.rte[0].grid z 0
scalar NetK.rte[1].grid x 3000
scalar NetK.rte[1].grid y 1000
scalar NetK.rte[1].grid z 0
scalar NetK.rte[2].grid x 5000
scalar NetK.rte[2].grid y 1000
scalar NetK.rte[2].grid z 0
scalar NetK.rte[3].grid x 7000
scalar NetK.rte[3].grid y 1000
scalar NetK.rte[3].grid z 0
scalar NetK.rte[4].grid x 9000
scalar NetK.rte[4].grid y 1000
scalar NetK.rte[4].grid z 0
scalar NetK.rte[5].grid x 1000
scalar NetK.rte[5].grid y 3000
scalar NetK.rte[5].grid z 0
scalar NetK.rte[6].grid x 3000
scalar NetK.rte[6].grid y 3000
scalar NetK.rte[6].grid z 0
scalar NetK.rte[7].grid x 5000
scalar NetK.rte[7].grid y 3000
scalar NetK.rte[7].grid z 0
scalar NetK.rte[8].grid x 7000
scalar NetK.rte[8].grid y 3000
scalar NetK.rte[8].grid z 0
scalar NetK.rte[9].grid x 9000
scalar NetK.rte[9].grid y 3000
scalar NetK.rte[9].grid z 0
scalar NetK.rte[10].grid x 1000
scalar NetK.rte[10].grid y 5000
scalar NetK.rte[10].grid z 0
scalar NetK.rte[11].grid x 3000
scalar NetK.rte[11].grid y 5000
scalar NetK.rte[11].grid z 0
scalar NetK.rte[12].grid x 5000
scalar NetK.rte[12].grid y 5000
scalar NetK.rte[12].grid z 0
scalar NetK.rte[13].grid x 7000
scalar NetK.rte[13].grid y 5000
scalar NetK.rte[13].grid z 0
scalar NetK.rte[14].grid x 9000
scalar NetK.rte[14].grid y 5000
scalar NetK.rte[14].grid z 0
scalar NetK.rte[15].grid x 1000
scalar NetK.rte[15].grid y 7000
scalar NetK.rte[15].grid z 0
scalar NetK.rte[16].grid x 3000
scalar NetK.rte[16].grid y 7000
scalar NetK.rte[16].grid z 0
scalar NetK.rte[17].grid x 5000
scalar NetK.rte[17].grid y 7000
scalar NetK.rte[17].grid z 0
scalar NetK.rte[18].grid x 7000
scalar NetK.rte[18].grid y 7000
scalar NetK.rte[18].grid z 0
scalar NetK.rte[19].grid x 9000
scalar NetK.rte[19].grid y 7000
scalar NetK.rte[19].grid z 0
scalar NetK.rte[20].grid x 1000
scalar NetK.rte[20].grid y 9000
scalar NetK.rte[20].grid z 0
scalar NetK.rte[21].grid x 3000
scalar NetK.rte[21].grid y 9000
scalar NetK.rte[21].grid z 0
scalar NetK.rte[22].grid x 5000
scalar NetK.rte[22].grid y 9000
scalar NetK.rte[22].grid z 0
scalar NetK.rte[23].grid x 7000
scalar NetK.rte[23].grid y 9000
scalar NetK.rte[23].grid z 0
scalar NetK.rte[24].grid x 9000
scalar NetK.rte[24].grid y 9000
scalar NetK.rte[24].grid z 0
scalar NetK.rte[0].app #sent -1.004593322877e+308
scalar NetK.rte[0].app #received -1.004593322877e+308
statistic NetK.rte[0].app "hop count"
field count 0
field mean nan
field stddev nan
field min nan
field max nan
field sum 0
field sqrsum 0
bin	-inf	0
bin	0	0
bin	1	0
scalar NetK.rte[0].app hopCount:mean nan
attr interpolationmode none
attr title "hop count of arrived packets, mean"
scalar NetK.rte[0].app hopCount:max nan
attr interpolationmode none
attr title "hop count of arrived packets, max"
scalar NetK.rte[0].app hopCount:count 0
attr interpolationmode none
attr title "hop count of arrived packets, count"
statistic NetK.rte[0].app hopCount:histogram
field count 0
field mean nan
field stddev nan
field min nan
field max nan
field sum 0
field sqrsum 0
attr interpolationmode none
attr title "hop count of arrived packets, histogram"
bin	-inf	0
bin	0	0
bin	1	0
scalar NetK.rte[0].app endToEndDelay:mean nan
attr interpolationmode none
attr title "end-to-end delay of arrived packets, mean"
attr unit s
scalar NetK.rte[0].app endToEndDelay:max nan
attr interpolationmode none
attr title "end-to-end delay of arrived packets, max"
attr unit s
scalar NetK.rte[0].app endToEndDelay:count 0
attr interpolationmode none
attr title "end-to-end delay of arrived packets, count"
attr unit s
statistic NetK.rte[0].routing TopoLinkCounter:histogram
field count 25
field mean 100.88
field stddev 7.9808103180901
field min 85
field max 115
field sum 2522
field sqrsum 255948
attr interpolationmode none
attr title "Number of links enabled in Topology, histogram"
bin	-inf	0
bin	77	0
bin	78	0
bin	79	0
bin	80	0
bin	81	0
bin	82	0
bin	83	0
bin	84	0
bin	85	1
bin	86	1
bin	87	1
bin	88	0
bin	89	0
bin	90	0
bin	91	0
bin	92	0
bin	93	0
bin	94	2
bin	95	1
bin	96	0
bin	97	1
bin	98	3
bin	99	2
bin	100	0
bin	101	1
bin	102	2
bin	103	0
bin	104	0
bin	105	1
bin	106	0
bin	107	4
bin	108	0
bin	109	2
bin	110	1
bin	111	1
bin	112	0
bin	113	0
bin	114	0
bin	115	1
bin	116	0
bin	117	0
bin	118	0
bin	119	0
bin	120	0
bin	121	0
bin	122	0
bin	123	0
scalar NetK.rte[0].routing TopoLinkCounter:mean 100.88
attr interpolationmode none
attr title "Number of links enabled in Topology, mean"
scalar NetK.rte[0].routing TopoLinkCounter:max 115
attr interpolationmode none
attr title "Number of links enabled in Topology, max"
scalar NetK.rte[0].routing TopoLinkCounter:count 25
attr interpolationmode none
attr title "Number of links enabled in Topology, count"
statistic NetK.rte[0].routing outputIf:histogram
field count 0
field mean nan
field stddev nan
field min nan
field max nan
field sum 0
field sqrsum 0
attr interpolationmode none
attr title "output interface for each routed packet, histogram"
bin	-inf	0
bin	0	0
bin	1	0
scalar NetK.rte[0].routing drop:count 0
attr interpolationmode none
attr title "dropped packet byte length, count"
attr unit bytes
scalar NetK.rte[0].routing drop:sum 0
attr interpolationmode none
attr title "dropped packet byte length, sum"
attr unit bytes
statistic NetK.rte[0].routing hopCount:histogram
field count 0
field mean nan
field stddev nan
field min nan
field max nan
field sum 0
field sqrsum 0
attr interpolationmode none
attr title "count number of hops for packet, histogram"
bin	-inf	0
bin	0	0
bin	1	0
scalar NetK.rte[0].routing hopCount:mean nan
attr interpolationmode none
attr title "count number of hops for packet, mean"
scalar NetK.rte[0].routing hopCount:max nan
attr interpolationmode none
attr title "count number of hops for packet, max"
scalar NetK.rte[0].routing hopCount:count 0
attr interpolationmode none
attr title "count number of hops for packet, count"
statistic NetK.rte[0].queue[0] "drop count"
field count 0
field mean nan
field stddev nan
field min nan
field max nan
field sum 0
field sqrsum 0
bin	-inf	0
bin	0	0
bin	1	0
scalar NetK.rte[0].queue[0] rxBytes:count 42
attr interpolationmode none
attr title "received packet byte length, count"
attr unit bytes
scalar NetK.rte[0].queue[0] rxBytes:sum 63000
attr interpolationmode none
attr title "received packet byte length, sum"
attr unit bytes
statistic NetK.rte[0].queue[0] rxBytes:histogram
field count 42
field mean 1500
field stddev 0
field min 1500
field max 1500
field sum 63000
field sqrsum 94500000
attr interpolationmode none
attr title "received packet byte length, histogram"
attr unit bytes
bin	-inf	0
bin	1499	0
bin	1500	42
bin	1501	0
scalar NetK.rte[0].queue[0] txBytes:count 94
attr interpolationmode none
attr title "transmitting packet byte length, count"
attr unit bytes
scalar NetK.rte[0].queue[0] txBytes:sum 141000
attr interpolationmode none
attr title "transmitting packet byte length, sum"
attr unit bytes
statistic NetK.rte[0].queue[0] txBytes:histogram
field count 94
field mean 1500
field stddev 0
field min 1500
field max 1500
field sum 141000
field sqrsum 211500000
attr interpolationmode none
attr title "transmitting packet byte length, histogram"
attr unit bytes
bin	-inf	0
bin	1499	0
bin	1500	94
bin	1501	0
scalar NetK.rte[0].queue[0] busy:timeavg 0.000376
attr interpolationmode sample-hold
attr title "server busy state, timeavg"
scalar NetK.rte[0].queue[0] qlen:timeavg 0
attr interpolationmode sample-hold
attr title "queue length, timeavg"
scalar NetK.rte[0].queue[0] qlen:max 0
attr interpolationmode sample-hold
attr title "queue length, max"
scalar NetK.rte[0].queue[0] drop:count 0
attr interpolationmode none
attr title "dropped packet byte length, count"
attr unit bytes
scalar NetK.rte[0].queue[0] drop:sum 0
attr interpolationmode none
attr title "dropped packet byte length, sum"
attr unit bytes
statistic NetK.rte[0].queue[1] "drop count"
field count 0
field mean nan
field stddev nan
field min nan
field max nan
field sum 0
field sqrsum 0
bin	-inf	0
bin	0	0
bin	1	0
scalar NetK.rte[0].queue[1] rxBytes:count 10444
attr interpolationmode none
attr title "received packet byte length, count"
attr unit bytes
scalar NetK.rte[0].queue[1] rxBytes:sum 15666000
attr interpolationmode none
attr title "received packet byte length, sum"
attr unit bytes
statistic NetK.rte[0].queue[1] rxBytes:histogram
field count 10444
field mean 1500
field stddev 0
field min 1500
field max 1500
field sum 15666000
field sqrsum 23499000000
attr interpolationmode none
attr title "received packet byte length, histogram"
attr unit bytes
bin	-inf	0
bin	1499	0
bin	1500	10444
bin	1501	0
scalar NetK.rte[0].queue[1] txBytes:count 10420
attr interpolationmode none
attr title "transmitting packet byte length, count"
attr unit bytes
scalar NetK.rte[0].queue[1] txBytes:sum 15630000
attr interpolationmode none
attr title "transmitting packet byte length, sum"
attr unit bytes
statistic NetK.rte[0].queue[1] txBytes:histogram
field count 10420
field mean 1500
field stddev 0
field min 1500
field max 1500
field sum 15630000
field sqrsum 23445000000
attr interpolationmode none
attr title "transmitting packet byte length, histogram"
attr unit bytes
bin	-inf	0
bin	1499	0
bin	1500	10420
bin	1501	0
scalar NetK.rte[0].queue[1] busy:timeavg 0.041680000000007
attr interpolationmode sample-hold
attr title "server busy state, timeavg"
scalar NetK.rte[0].queue[1] qlen:timeavg 0
attr interpolationmode sample-hold
attr title "queue length, timeavg"
scalar NetK.rte[0].queue[1] qlen:max 0
attr interpolationmode sample-hold
attr title "queue length, max"
scalar NetK.rte[0].queue[1] drop:count 0
attr interpolationmode none
attr title "dropped packet byte length, count"
attr unit bytes
scalar NetK.rte[0].queue[1] drop:sum 0
attr interpolationmode none
attr title "dropped packet byte length, sum"
attr unit bytes
statistic NetK.rte[0].queue[2] "drop count"
field count 0
field mean nan
field stddev nan
field min nan
field max nan
field sum 0
field sqrsum 0
bin	-inf	0
bin	0	0
bin	1	0
scalar NetK.rte[0].queue[2] rxBytes:count 62
attr interpolationmode none
attr title "received packet byte length, count"
attr unit bytes
scalar NetK.rte[0].queue[2] rxBytes:sum 93000
attr interpolationmode none
attr title "received packet byte length, sum"
attr unit bytes
statistic NetK.rte[0].queue[2] rxBytes:histogram
field count 62
field mean 1500
field stddev 0
field min 1500
field max 1500
field sum 93000
field sqrsum 139500000
attr interpolationmode none
attr title "received packet byte length, histogram"
attr unit bytes
bin	-inf	0
bin	1499	0
bin	1500	62
bin	1501	0
scalar NetK.rte[0].queue[2] txBytes:count 41
attr interpolationmode none
attr title "transmitting packet byte length, count"
attr unit bytes
scalar NetK.rte[0].queue[2] txBytes:sum 61500
attr interpolationmode none
attr title "transmitting packet byte length, sum"
attr unit bytes
statistic NetK.rte[0].queue[2] txBytes:histogram
field count 41
field mean 1500
field stddev 0
field min 1500
field max 1500
field sum 61500
field sqrsum 92250000
attr interpolationmode none
attr title "transmitting packet byte length, histogram"
attr unit bytes
bin	-inf	0
bin	1499	0
bin	1500	41
bin	1501	0
scalar NetK.rte[0].queue[2] busy:timeavg 0.000164
attr interpolationmode sample-hold
attr title "server busy state, timeavg"
scalar NetK.rte[0].queue[2] qlen:timeavg 0
attr interpolationmode sample-hold
attr title "queue length, timeavg"
scalar NetK.rte[0].queue[2] qlen:max 0
attr interpolationmode sample-hold
attr title "queue length, max"
scalar NetK.rte[0].queue[2] drop:count 0
attr interpolationmode none
attr title "dropped packet byte length, count"
attr unit bytes
scalar NetK.rte[0].queue[2] drop:sum 0
attr interpolationmode none
attr title "dropped packet byte length, sum"
attr unit bytes
statistic NetK.rte[0].queue[3] "drop count"
field count 0
field mean nan
field stddev nan
field min nan
field max nan
field sum 0
field sqrsum 0
bin	-inf	0
bin	0	0
bin	1	0
scalar NetK.rte[0].queue[3] rxBytes:count 29
attr interpolationmode none
attr title "received packet byte length, count"
attr unit bytes
scalar NetK.rte[0].queue[3] rxBytes:sum 43500
attr interpolationmode none
attr title "received packet byte length, sum"
attr unit bytes
statistic NetK.rte[0].queue[3] rxBytes:histogram
field count 29
field mean 1500
field stddev 0
field min 1500
field max 1500
field sum 43500
field sqrsum 65250000
attr interpolationmode none
attr title "received packet byte length, histogram"
attr unit bytes
bin	-inf	0
bin	1499	0
bin	1500	29
bin	1501	0
scalar NetK.rte[0].queue[3] txBytes:count 87
attr interpolationmode none
attr title "transmitting packet byte length, count"
attr unit bytes
scalar NetK.rte[0].queue[3] txBytes:sum 130500
attr interpolationmode none
attr title "transmitting packet byte length, sum"
attr unit bytes
statistic NetK.rte[0].queue[3] txBytes:histogram
field count 87
field mean 1500
field stddev 0
field min 1500
field max 1500
field sum 130500
field sqrsum 195750000
attr interpolationmode none
attr title "transmitting packet byte length, histogram"
attr unit bytes
bin	-inf	0
bin	1499	0
bin	1500	87
bin	1501	0
scalar NetK.rte[0].queue[3] busy:timeavg 0.000348
attr interpolationmode sample-hold
attr title "server busy state, timeavg"
scalar NetK.rte[0].queue[3] qlen:timeavg 0
attr interpolationmode sample-hold
attr title "queue length, timeavg"
scalar NetK.rte[0].queue[3] qlen:max 0
attr interpolationmode sample-hold
attr title "queue length, max"
scalar NetK.rte[0].queue[3] drop:count 0
attr interpolationmode none
attr title "dropped packet byte length, count"
attr unit bytes
scalar NetK.rte[0].queue[3] drop:sum 0
attr interpolationmode none
attr title "dropped packet byte length, sum"
attr unit bytes
statistic NetK.rte[0].queue[4] "drop count"
field count 0
field mean nan
field stddev nan
field min nan
field max nan
field sum 0
field sqrsum 0
bin	-inf	0
bin	0	0
bin	1	0
scalar NetK.rte[0].queue[4] rxBytes:count 111
attr interpolationmode none
attr title "received packet byte length, count"
attr unit bytes
scalar NetK.rte[0].queue[4] rxBytes:sum 166500
attr interpolationmode none
attr title "received packet byte length, sum"
attr unit bytes
statistic NetK.rte[0].queue[4] rxBytes:histogram
field count 111
field mean 1500
field stddev 0
field min 1500
field max 1500
field sum 166500
field sqrsum 249750000
attr interpolationmode none
attr title "received packet byte length, histogram"
attr unit bytes
bin	-inf	0
bin	1499	0
bin	1500	111
bin	1501	0
scalar NetK.rte[0].queue[4] txBytes:count 41
attr interpolationmode none
attr title "transmitting packet byte length, count"
attr unit bytes
scalar NetK.rte[0].queue[4] txBytes:sum 61500
attr interpolationmode none
attr title "transmitting packet byte length, sum"
attr unit bytes
statistic NetK.rte[0].queue[4] txBytes:histogram
field count 41
field mean 1500
field stddev 0
field min 1500
field max 1500
field sum 61500
field sqrsum 92250000
attr interpolationmode none
attr title "transmitting packet byte length, histogram"
attr unit bytes
bin	-inf	0
bin	1499	0
bin	1500	41
bin	1501	0
scalar NetK.rte[0].queue[4] busy:timeavg 0.000164
attr interpolationmode sample-hold
attr title "server busy state, timeavg"
scalar NetK.rte[0].queue[4] qlen:timeavg 0
attr interpolationmode sample-hold
attr title "queue length, timeavg"
scalar NetK.rte[0].queue[4] qlen:max 0
attr interpolationmode sample-hold
attr title "queue length, max"
scalar NetK.rte[0].queue[4] drop:count 0
attr interpolationmode none
attr title "dropped packet byte length, count"
attr unit bytes
scalar NetK.rte[0].queue[4] drop:sum 0
attr interpolationmode none
attr title "dropped packet byte length, sum"
attr unit bytes
statistic NetK.rte[0].queue[5] "drop count"
field count 0
field mean nan
field stddev nan
field min nan
field max nan
field sum 0
field sqrsum 0
bin	-inf	0
bin	0	0
bin	1	0
scalar NetK.rte[0].queue[5] rxBytes:count 56
attr interpolationmode none
attr title "received packet byte length, count"
attr unit bytes
scalar NetK.rte[0].queue[5] rxBytes:sum 84000
attr interpolationmode none
attr title "received packet byte length, sum"
attr unit bytes
statistic NetK.rte[0].queue[5] rxBytes:histogram
field count 56
field mean 1500
field stddev 0
field min 1500
field max 1500
field sum 84000
field sqrsum 126000000
attr interpolationmode none
attr title "received packet byte length, histogram"
attr unit bytes
bin	-inf	0
bin	1499	0
bin	1500	56
bin	1501	0
scalar NetK.rte[0].queue[5] txBytes:count 109
attr interpolationmode none
attr title "transmitting packet byte length, count"
attr unit bytes
scalar NetK.rte[0].queue[5] txBytes:sum 163500
attr interpolationmode none
attr title "transmitting packet byte length, sum"
attr unit bytes
statistic NetK.rte[0].queue[5] txBytes:histogram
field count 109
field mean 1500
field stddev 0
field min 1500
field max 1500
field sum 163500
field sqrsum 245250000
attr interpolationmode none
attr title "transmitting packet byte length, histogram"
attr unit bytes
bin	-inf	0
bin	1499	0
bin	1500	109
bin	1501	0
scalar NetK.rte[0].queue[5] busy:timeavg 0.000432
attr interpolationmode sample-hold
attr title "server busy state, timeavg"
scalar NetK.rte[0].queue[5] qlen:timeavg 0
attr interpolationmode sample-hold
attr title "queue length, timeavg"
scalar NetK.rte[0].queue[5] qlen:max 0
attr interpolationmode sample-hold
attr title "queue length, max"
scalar NetK.rte[0].queue[5] drop:count 0
attr interpolationmode none
attr title "dropped packet byte length, count"
attr unit bytes
scalar NetK.rte[0].queue[5] drop:sum 0
attr interpolationmode none
attr title "dropped packet byte length, sum"
attr unit bytes
scalar NetK.rte[1].app #sent -4.0580688278778e+307
scalar NetK.rte[1].app #received -4.0580666865318e+307
statistic NetK.rte[1].app "hop count"
field count 0
field mean nan
field stddev nan
field min nan
field max nan
field sum 0
field sqrsum 0
bin	-inf	0
bin	0	0
bin	1	0
scalar NetK.rte[1].app hopCount:mean nan
attr interpolationmode none
attr title "hop count of arrived packets, mean"
scalar NetK.rte[1].app hopCount:max nan
attr interpolationmode none
attr title "hop count of arrived packets, max"
scalar NetK.rte[1].app hopCount:count 0
attr interpolationmode none
attr title "hop count of arrived packets, count"
statistic NetK.rte[1].app hopCount:histogram
field count 0
field mean nan
field stddev nan
field min nan
field max nan
field sum 0
field sqrsum 0
attr interpolationmode none
attr title "hop count of arrived packets, histogram"
bin	-inf	0
bin	0	0
bin	1	0
scalar NetK.rte[1].app endToEndDelay:mean nan
attr interpolationmode none
attr title "end-to-end delay of arrived packets, mean"
attr unit s
scalar NetK.rte[1].app endToEndDelay:max nan
attr interpolationmode none
attr title "end-to-end delay of arrived packets, max"
attr unit s
scalar NetK.rte[1].app endToEndDelay:count 0
attr interpolationmode none
attr title "end-to-end delay of arrived packets, count"
attr unit s
statistic NetK.rte[1].routing TopoLinkCounter:histogram
field count 0
field mean nan
field stddev nan
field min nan
field max nan
field sum 0
field sqrsum 0
attr interpolationmode none
attr title "Number of links enabled in Topology, histogram"
bin	-inf	0
bin	0	0
bin	1	0
scalar NetK.rte[1].routing TopoLinkCounter:mean nan
attr interpolationmode none
attr title "Number of links enabled in Topology, mean"
scalar NetK.rte[1].routing TopoLinkCounter:max nan
attr interpolationmode none
attr title "Number of links enabled in Topology, max"
scalar NetK.rte[1].routing TopoLinkCounter:count 0
attr interpolationmode none
attr title "Number of links enabled in Topology, count"
statistic NetK.rte[1].routing outputIf:histogram
field count 0
field mean nan
field stddev nan
field min nan
field max nan
field sum 0
field sqrsum 0
attr interpolationmode none
attr title "output interface for each routed packet, histogram"
bin	-inf	0
bin	0	0
bin	1	0
scalar NetK.rte[1].routing drop:count 0
attr interpolationmode none
attr title "dropped packet byte length, count"
attr unit bytes
scalar NetK.rte[1].routing drop:sum 0
attr interpolationmode none
attr title "dropped packet byte length, sum"
attr unit bytes
statistic NetK.rte[1].routing hopCount:histogram
field count 0
field mean nan
field stddev nan
field min nan
field max nan
field sum 0
field sqrsum 0
attr interpolationmode none
attr title "count number of hops for packet, histogram"
bin	-inf	0
bin	0	0
bin	1	0
scalar NetK.rte[1].routing hopCount:mean nan
attr interpolationmode none
attr title "count number of hops for packet, mean"
scalar NetK.rte[1].routing hopCount:max nan
attr interpolationmode none
attr title "count number of hops for packet, max"
scalar NetK.rte[1].routing hopCount:count 0
attr interpolationmode none
attr title "count number of hops for packet, count"
statistic NetK.rte[1].queue[0] "drop count"
field count 0
field mean nan
field stddev nan
field min nan
field max nan
field sum 0
field sqrsum 0
bin	-inf	0
bin	0	0
bin	1	0
scalar NetK.rte[1].queue[0] rxBytes:count 94
attr interpolationmode none
attr title "received packet byte length, count"
attr unit bytes
scalar NetK.rte[1].queue[0] rxBytes:sum 141000
attr interpolationmode none
attr title "received packet byte length, sum"
attr unit bytes
statistic NetK.rte[1].queue[0] rxBytes:histogram
field count 94
field mean 1500
field stddev 0
field min 1500
field max 1500
field sum 141000
field sqrsum 211500000
attr interpolationmode none
attr title "received packet byte length, histogram"
attr unit bytes
bin	-inf	0
bin	1499	0
bin	1500	94
bin	1501	0
scalar NetK.rte[1].queue[0] txBytes:count 42
attr interpolationmode none
attr title "transmitting packet byte length, count"
attr unit bytes
scalar NetK.rte[1].queue[0] txBytes:sum 63000
attr interpolationmode none
attr title "transmitting packet byte length, sum"
attr unit bytes
statistic NetK.rte[1].queue[0] txBytes:histogram
field count 42
field mean 1500
field stddev 0
field min 1500
field max 1500
field sum 63000
field sqrsum 94500000
attr interpolationmode none
attr title "transmitting packet byte length, histogram"
attr unit bytes
bin	-inf	0
bin	1499	0
bin	1500	42
bin	1501	0
scalar NetK.rte[1].queue[0] busy:timeavg 0.000168
attr interpolationmode sample-hold
attr title "server busy state, timeavg"
scalar NetK.rte[1].queue[0] qlen:timeavg 0
attr interpolationmode sample-hold
attr title "queue length, timeavg"
scalar NetK.rte[1].queue[0] qlen:max 0
attr interpolationmode sample-hold
attr title "queue length, max"
scalar NetK.rte[1].queue[0] drop:count 0
attr interpolationmode none
attr title "dropped packet byte length, count"
attr unit bytes
scalar NetK.rte[1].queue[0] drop:sum 0
attr interpolationmode none
attr title "dropped packet byte length, sum"
attr unit bytes
statistic NetK.rte[1].queue[1] "drop count"
field count 0
field mean nan
field stddev nan
field min nan
field max nan
field sum 0
field sqrsum 0
bin	-inf	0
bin	0	0
bin	1	0
scalar NetK.rte[1].queue[1] rxBytes:count 50
attr interpolationmode none
attr title "received packet byte length, count"
attr unit bytes
scalar NetK.rte[1].queue[1] rxBytes:sum 75000
attr interpolationmode none
attr title "received packet byte length, sum"
attr unit bytes
statistic NetK.rte[1].queue[1] rxBytes:histogram
field count 50
field mean 1500
field stddev 0
field min 1500
field max 1500
field sum 75000
field sqrsum 112500000
attr interpolationmode none
attr title "received packet byte length, histogram"
attr unit bytes
bin	-inf	0
bin	1499	0
bin	1500	50
bin	1501	0
scalar NetK.rte[1].queue[1] txBytes:count 48
attr interpolationmode none
attr title "transmitting packet byte length, count"
attr unit bytes
scalar NetK.rte[1].queue[1] txBytes:sum 72000
attr interpolationmode none
attr title "transmitting packet byte length, sum"
attr unit bytes
statistic NetK.rte[1].queue[1] txBytes:histogram
field count 48
field mean 1500
field stddev 0
field min 1500
field max 1500
field sum 72000
field sqrsum 108000000
attr interpolationmode none
attr title "transmitting packet byte length, histogram"
attr unit bytes
bin	-inf	0
bin	1499	0
bin	1500	48
bin	1501	0
scalar NetK.rte[1].queue[1] busy:timeavg 0.000192
attr interpolationmode sample-hold
attr title "server busy state, timeavg"
scalar NetK.rte[1].queue[1] qlen:timeavg 0
attr interpolationmode sample-hold
attr title "queue length, timeavg"
scalar NetK.rte[1].queue[1] qlen:max 0
attr interpolationmode sample-hold
attr title "queue length, max"
scalar NetK.rte[1].queue[1] drop:count 0
attr interpolationmode none
attr title "dropped packet byte length, count"
attr unit bytes
scalar NetK.rte[1].queue[1] drop:sum 0
attr interpolationmode none
attr title "dropped packet byte length, sum"
attr unit bytes
statistic NetK.rte[1].queue[2] "drop count"
field count 0
field mean nan
field stddev nan
field min nan
field max nan
field sum 0
field sqrsum 0
bin	-inf	0
bin	0	0
bin	1	0
scalar NetK.rte[1].queue[2] rxBytes:count 57
attr interpolationmode none
attr title "received packet byte length, count"
attr unit bytes
scalar NetK.rte[1].queue[2] rxBytes:sum 85500
attr interpolationmode none
attr title "received packet byte length, sum"
attr unit bytes
statistic NetK.rte[1].queue[2] rxBytes:histogram
field count 57
field mean 1500
field stddev 0
field min 1500
field max 1500
field sum 85500
field sqrsum 128250000
attr interpolationmode none
attr title "received packet byte length, histogram"
attr unit bytes
bin	-inf	0
bin	1499	0
bin	1500	57
bin	1501	0
scalar NetK.rte[1].queue[2] txBytes:count 90
attr interpolationmode none
attr title "transmitting packet byte length, count"
attr unit bytes
scalar NetK.rte[1].queue[2] txBytes:sum 135000
attr interpolationmode none
attr title "transmitting packet byte length, sum"
attr unit bytes
statistic NetK.rte[1].queue[2] txBytes:histogram
field count 90
field mean 1500
field stddev 0
field min 1500
field max 1500
field sum 135000
field sqrsum 202500000
attr interpolationmode none
attr title "transmitting packet byte length, histogram"
attr unit bytes
bin	-inf	0
bin	1499	0
bin	1500	90
bin	1501	0
scalar NetK.rte[1].queue[2] busy:timeavg 0.00036
attr interpolationmode sample-hold
attr title "server busy state, timeavg"
scalar NetK.rte[1].queue[2] qlen:timeavg 0
attr interpolationmode sample-hold
attr title "queue length, timeavg"
scalar NetK.rte[1].queue[2] qlen:max 0
attr interpolationmode sample-hold
attr title "queue length, max"
scalar NetK.rte[1].queue[2] drop:count 0
attr interpolationmode none
attr title "dropped packet byte length, count"
attr unit bytes
scalar NetK.rte[1].queue[2] drop:sum 0
attr interpolationmode none
attr title "dropped packet byte length, sum"
attr unit bytes
statistic NetK.rte[1].queue[3] "drop count"
field count 0
field mean nan
field stddev nan
field min nan
field max nan
field sum 0
field sqrsum 0
bin	-inf	0
bin	0	0
bin	1	0
scalar NetK.rte[1].queue[3] rxBytes:count 137
attr interpolationmode none
attr title "received packet byte length, count"
attr unit bytes
scalar NetK.rte[1].queue[3] rxBytes:sum 205500
attr interpolationmode none
attr title "received packet byte length, sum"
attr unit bytes
statistic NetK.rte[1].queue[3] rxBytes:histogram
field count 137
field mean 1500
field stddev 0
field min 1500
field max 1500
field sum 205500
field sqrsum 308250000
attr interpolationmode none
attr title "received packet byte length, histogram"
attr unit bytes
bin	-inf	0
bin	1499	0
bin	1500	137
bin	1501	0
scalar NetK.rte[1].queue[3] txBytes:count 52
attr interpolationmode none
attr title "transmitting packet byte length, count"
attr unit bytes
scalar NetK.rte[1].queue[3] txBytes:sum 78000
attr interpolationmode none
attr title "transmitting packet byte length, sum"
attr unit bytes
statistic NetK.rte[1].queue[3] txBytes:histogram
field count 52
field mean 1500
field stddev 0
field min 1500
field max 1500
field sum 78000
field sqrsum 117000000
attr interpolationmode none
attr title "transmitting packet byte length, histogram"
attr unit bytes
bin	-inf	0
bin	1499	0
bin	1500	52
bin	1501	0
scalar NetK.rte[1].queue[3] busy:timeavg 0.000208
attr interpolationmode sample-hold
attr title "server busy state, timeavg"
scalar NetK.rte[1].queue[3] qlen:timeavg 0
attr interpolationmode sample-hold
attr title "queue length, timeavg"
scalar NetK.rte[1].queue[3] qlen:max 0
attr interpolationmode sample-hold
attr title "queue length, max"
scalar NetK.rte[1].queue[3] drop:count 0
attr interpolationmode none
attr title "dropped packet byte length, count"
attr unit bytes
scalar NetK.rte[1].queue[3] drop:sum 0
attr interpolationmode none
attr title "dropped packet byte length, sum"
attr unit bytes
statistic NetK.rte[1].queue[4] "drop count"
field count 0
field mean nan
field stddev nan
field min nan
field max nan
field sum 0
field sqrsum 0
bin	-inf	0
bin	0	0
bin	1	0
scalar NetK.rte[1].queue[4] rxBytes:count 38
attr interpolationmode none
attr title "received packet byte length, count"
attr unit bytes
scalar NetK.rte[1].queue[4] rxBytes:sum 57000
attr interpolationmode none
attr title "received packet byte length, sum"
attr unit bytes
statistic NetK.rte[1].queue[4] rxBytes:histogram
field count 38
field mean 1500
field stddev 0
field min 1500
field max 1500
field sum 57000
field sqrsum 85500000
attr interpolationmode none
attr title "received packet byte length, histogram"
attr unit bytes
bin	-inf	0
bin	1499	0
bin	1500	38
bin	1501	0
scalar NetK.rte[1].queue[4] txBytes:count 46
attr interpolationmode none
attr title "transmitting packet byte length, count"
attr unit bytes
scalar NetK.rte[1].queue[4] txBytes:sum 69000
attr interpolationmode none
attr title "transmitting packet byte length, sum"
attr unit bytes
statistic NetK.rte[1].queue[4] txBytes:histogram
field count 46
field mean 1500
field stddev 0
field min 1500
field max 1500
field sum 69000
field sqrsum 103500000
attr interpolationmode none
attr title "transmitting packet byte length, histogram"
attr unit bytes
bin	-inf	0
bin	1499	0
bin	1500	46
bin	1501	0
scalar NetK.rte[1].queue[4] busy:timeavg 0.000184
attr interpolationmode sample-hold
attr title "server busy state, timeavg"
scalar NetK.rte[1].queue[4] qlen:timeavg 0
attr interpolationmode sample-hold
attr title "queue length, timeavg"
scalar NetK.rte[1].queue[4] qlen:max 0
attr interpolationmode sample-hold
attr title "queue length, max"
scalar NetK.rte[1].queue[4] drop:count 0
attr interpolationmode none
attr title "dropped packet byte length, count"
attr unit bytes
scalar NetK.rte[1].queue[4] drop:sum 0
attr interpolationmode none
attr title "dropped packet byte length, sum"
attr unit bytes
statistic NetK.rte[1].queue[5] "drop count"
field count 0
field mean nan
field stddev nan
field min nan
field max nan
field sum 0
field sqrsum 0
bin	-inf	0
bin	0	0
bin	1	0
scalar NetK.rte[1].queue[5] rxBytes:count 43
attr interpolationmode none
attr title "received packet byte length, count"
attr unit bytes
scalar NetK.rte[1].queue[5] rxBytes:sum 64500
attr interpolationmode none
attr title "received packet byte length, sum"
attr unit bytes
statistic NetK.rte[1].queue[5] rxBytes:histogram
field count 43
field mean 1500
field stddev 0
field min 1500
field max 1500
field sum 64500
field sqrsum 96750000
attr interpolationmode none
attr title "received packet byte length, histogram"
attr unit bytes
bin	-inf	0
bin	1499	0
bin	1500	43
bin	1501	0
scalar NetK.rte[1].queue[5] txBytes:count 43
attr interpolationmode none
attr title "transmitting packet byte length, count"
attr unit bytes
scalar NetK.rte[1].queue[5] txBytes:sum 64500
attr interpolationmode none
attr title "transmitting packet byte length, sum"
attr unit bytes
statistic NetK.rte[1].queue[5] txBytes:histogram
field count 43
field mean 1500
field stddev 0
field min 1500
field max 1500
field sum 64500
field sqrsum 96750000
attr interpolationmode none
attr title "transmitting packet byte length, histogram"
attr unit bytes
bin	-inf	0
bin	1499	0
bin	1500	43
bin	1501	0
scalar NetK.rte[1].queue[5] busy:timeavg 0.000172
attr interpolationmode sample-hold
attr title "server busy state, timeavg"
scalar NetK.rte[1].queue[5] qlen:timeavg 0
attr interpolationmode sample-hold
attr title "queue length, timeavg"
scalar NetK.rte[1].queue[5] qlen:max 0
attr interpolationmode sample-hold
attr title "queue length, max"
scalar NetK.rte[1].queue[5] drop:count 0
attr interpolationmode none
attr title "dropped packet byte length, count"
attr unit bytes
scalar NetK.rte[1].queue[5] drop:sum 0
attr interpolationmode none
attr title "dropped packet byte length, sum"
attr unit bytes
scalar NetK.rte[2].app #sent -1.0052559437998e+308
scalar NetK.rte[2].app #received -1.0052550869867e+308
statistic NetK.rte[2].app "hop count"
field count 0
field mean nan
field stddev nan
field min nan
field max nan
field sum 0
field sqrsum 0
bin	-inf	0
bin	0	0
bin	1	0
scalar NetK.rte[2].app hopCount:mean nan
attr interpolationmode none
attr title "hop count of arrived packets, mean"
scalar NetK.rte[2].app hopCount:max nan
attr interpolationmode none
attr title "hop count of arrived packets, max"
scalar NetK.rte[2].app hopCount:count 0
attr interpolationmode none
attr title "hop count of arrived packets, count"
statistic NetK.rte[2].app hopCount:histogram
field count 0
field mean nan
field stddev nan
field min nan
field max nan
field sum 0
field sqrsum 0
attr interpolationmode none
attr title "hop count of arrived packets, histogram"
bin	-inf	0
bin	0	0
bin	1	0
scalar NetK.rte[2].app endToEndDelay:mean nan
attr interpolationmode none
attr title "end-to-end delay of arrived packets, mean"
attr unit s
scalar NetK.rte[2].app endToEndDelay:max nan
attr interpolationmode none
attr title "end-to-end delay of arrived packets, max"
attr unit s
scalar NetK.rte[2].app endToEndDelay:count 0
attr interpolationmode none
attr title "end-to-end delay of arrived packets, count"
attr unit s
statistic NetK.rte[2].routing TopoLinkCounter:histogram
field count 0
field mean nan
field stddev nan
field min nan
field max nan
field sum 0
field sqrsum 0
attr interpolationmode none
attr title "Number of links enabled in Topology, histogram"
bin	-inf	0
bin	0	0
bin	1	0
scalar NetK.rte[2].routing TopoLinkCounter:mean nan
attr interpolationmode none
attr title "Number of links enabled in Topology, mean"
scalar NetK.rte[2].routing TopoLinkCounter:max nan
attr interpolationmode none
attr title "Number of links enabled in Topology, max"
scalar NetK.rte[2].routing TopoLinkCounter:count 0
attr interpolationmode none
attr title "Number of links enabled in Topology, count"
statistic NetK.rte[2].routing outputIf:histogram
field count 0
field mean nan
field stddev nan
field min nan
field max nan
field sum 0
field sqrsum 0
attr interpolationmode none
attr title "output interface for each routed packet, histogram"
bin	-inf	0
bin	0	0
bin	1	0
scalar NetK.rte[2].routing drop:count 0
attr interpolationmode none
attr title "dropped packet byte length, count"
attr unit bytes
scalar NetK.rte[2].routing drop:sum 0
attr interpolationmode none
attr title "dropped packet byte length, sum"
attr unit bytes
statistic NetK.rte[2].routing hopCount:histogram
field count 0
field mean nan
field stddev nan
field min nan
field max nan
field sum 0
field sqrsum 0
attr interpolationmode none
attr title "count number of hops for packet, histogram"
bin	-inf	0
bin	0	0
bin	1	0
scalar NetK.rte[2].routing hopCount:mean nan
attr interpolationmode none
attr title "count number of hops for packet, mean"
scalar NetK.rte[2].routing hopCount:max nan
attr interpolationmode none
attr title "count number of hops for packet, max"
scalar NetK.rte[2].routing hopCount:count 0
attr interpolationmode none
attr title "count number of hops for packet, count"
statistic NetK.rte[2].queue[0] "drop count"
field count 0
field mean nan
field stddev nan
field min nan
field max nan
field sum 0
field sqrsum 0
bin	-inf	0
bin	0	0
bin	1	0
scalar NetK.rte[2].queue[0] rxBytes:count 48
attr interpolationmode none
attr title "received packet byte length, count"
attr unit bytes
scalar NetK.rte[2].queue[0] rxBytes:sum 72000
attr interpolationmode none
attr title "received packet byte length, sum"
attr unit bytes
statistic NetK.rte[2].queue[0] rxBytes:histogram
field count 48
field mean 1500
field stddev 0
field min 1500
field max 1500
field sum 72000
field sqrsum 108000000
attr interpolationmode none
attr title "received packet byte length, histogram"
attr unit bytes
bin	-inf	0
bin	1499	0
bin	1500	48
bin	1501	0
scalar NetK.rte[2].queue[0] txBytes:count 50
attr interpolationmode none
attr title "transmitting packet byte length, count"
attr unit bytes
scalar NetK.rte[2].queue[0] txBytes:sum 75000
attr interpolationmode none
attr title "transmitting packet byte length, sum"
attr unit bytes
statistic NetK.rte[2].queue[0] txBytes:histogram
field count 50
field mean 1500
field stddev 0
field min 1500
field max 1500
field sum 75000
field sqrsum 112500000
attr interpolationmode none
attr title "transmitting packet byte length, histogram"
attr unit bytes
bin	-inf	0
bin	1499	0
bin	1500	50
bin	1501	0
scalar NetK.rte[2].queue[0] busy:timeavg 0.0002
attr interpolationmode sample-hold
attr title "server busy state, timeavg"
scalar NetK.rte[2].queue[0] qlen:timeavg 0
attr interpolationmode sample-hold
attr title "queue length, timeavg"
scalar NetK.rte[2].queue[0] qlen:max 0
attr interpolationmode sample-hold
attr title "queue length, max"
scalar NetK.rte[2].queue[0] drop:count 0
attr interpolationmode none
attr title "dropped packet byte length, count"
attr unit bytes
scalar NetK.rte[2].queue[0] drop:sum 0
attr interpolationmode none
attr title "dropped packet byte length, sum"
attr unit bytes
statistic NetK.rte[2].queue[1] "drop count"
field count 0
field mean nan
field stddev nan
field min nan
field max nan
field sum 0
field sqrsum 0
bin	-inf	0
bin	0	0
bin	1	0
scalar NetK.rte[2].queue[1] rxBytes:count 87
attr interpolationmode none
attr title "received packet byte length, count"
attr unit bytes
scalar NetK.rte[2].queue[1] rxBytes:sum 130500
attr interpolationmode none
attr title "received packet byte length, sum"
attr unit bytes
statistic NetK.rte[2].queue[1] rxBytes:histogram
field count 87
field mean 1500
field stddev 0
field min 1500
field max 1500
field sum 130500
field sqrsum 195750000
attr interpolationmode none
attr title "received packet byte length, histogram"
attr unit bytes
bin	-inf	0
bin	1499	0
bin	1500	87
bin	1501	0
scalar NetK.rte[2].queue[1] txBytes:count 55
attr interpolationmode none
attr title "transmitting packet byte length, count"
attr unit bytes
scalar NetK.rte[2].queue[1] txBytes:sum 82500
attr interpolationmode none
attr title "transmitting packet byte length, sum"
attr unit bytes
statistic NetK.rte[2].queue[1] txBytes:histogram
field count 55
field mean 1500
field stddev 0
field min 1500
field max 1500
field sum 82500
field sqrsum 123750000
attr interpolationmode none
attr title "transmitting packet byte length, histogram"
attr unit bytes
bin	-inf	0
bin	1499	0
bin	1500	55
bin	1501	0
scalar NetK.rte[2].queue[1] busy:timeavg 0.00022
attr interpolationmode sample-hold
attr title "server busy state, timeavg"
scalar NetK.rte[2].queue[1] qlen:timeavg 0
attr interpolationmode sample-hold
attr title "queue length, timeavg"
scalar NetK.rte[2].queue[1] qlen:max 0
attr interpolationmode sample-hold
attr title "queue length, max"
scalar NetK.rte[2].queue[1] drop:count 0
attr interpolationmode none
attr title "dropped packet byte length, count"
attr unit bytes
scalar NetK.rte[2].queue[1] drop:sum 0
attr interpolationmode none
attr title "dropped packet byte length, sum"
attr unit bytes
statistic NetK.rte[2].queue[2] "drop count"
field count 0
field mean nan
field stddev nan
field min nan
field max nan
field sum 0
field sqrsum 0
bin	-inf	0
bin	0	0
bin	1	0
scalar NetK.rte[2].queue[2] rxBytes:count 45
attr interpolationmode none
attr title "received packet byte length, count"
attr unit bytes
scalar NetK.rte[2].queue[2] rxBytes:sum 67500
attr interpolationmode none
attr title "received packet byte length, sum"
attr unit bytes
statistic NetK.rte[2].queue[2] rxBytes:histogram
field count 45
field mean 1500
field stddev 0
field min 1500
field max 1500
field sum 67500
field sqrsum 101250000
attr interpolationmode none
attr title "received packet byte length, histogram"
attr unit bytes
bin	-inf	0
bin	1499	0
bin	1500	45
bin	1501	0
scalar NetK.rte[2].queue[2] txBytes:count 10444
attr interpolationmode none
attr title "transmitting packet byte length, count"
attr unit bytes
scalar NetK.rte[2].queue[2] txBytes:sum 15666000
attr interpolationmode none
attr title "transmitting packet byte length, sum"
attr unit bytes
statistic NetK.rte[2].queue[2] txBytes:histogram
field count 10444
field mean 1500
field stddev 0
field min 1500
field max 1500
field sum 15666000
field sqrsum 23499000000
attr interpolationmode none
attr title "transmitting packet byte length, histogram"
attr unit bytes
bin	-inf	0
bin	1499	0
bin	1500	10444
bin	1501	0
scalar NetK.rte[2].queue[2] busy:timeavg 0.041776000000008
attr interpolationmode sample-hold
attr title "server busy state, timeavg"
scalar NetK.rte[2].queue[2] qlen:timeavg 0
attr interpolationmode sample-hold
attr title "queue length, timeavg"
scalar NetK.rte[2].queue[2] qlen:max 0
attr interpolationmode sample-hold
attr title "queue length, max"
scalar NetK.rte[2].queue[2] drop:count 0
attr interpolationmode none
attr title "dropped packet byte length, count"
attr unit bytes
scalar NetK.rte[2].queue[2] drop:sum 0
attr interpolationmode none
attr title "dropped packet byte length, sum"
attr unit bytes
statistic NetK.rte[2].queue[3] "drop count"
field count 0
field mean nan
field stddev nan
field min nan
field max nan
field sum 0
field sqrsum 0
bin	-inf	0
bin	0	0
bin	1	0
scalar NetK.rte[2].queue[3] rxBytes:count 85
attr interpolationmode none
attr title "received packet byte length, count"
attr unit bytes
scalar NetK.rte[2].queue[3] rxBytes:sum 127500
attr interpolationmode none
attr title "received packet byte length, sum"
attr unit bytes
statistic NetK.rte[2].queue[3] rxBytes:histogram
field count 85
field mean 1500
field stddev 0
field min 1500
field max 1500
field sum 127500
field sqrsum 191250000
attr interpolationmode none
attr title "received packet byte length, histogram"
attr unit bytes
bin	-inf	0
bin	1499	0
bin	1500	85
bin	1501	0
scalar NetK.rte[2].queue[3] txBytes:count 55
attr interpolationmode none
attr title "transmitting packet byte length, count"
attr unit bytes
scalar NetK.rte[2].queue[3] txBytes:sum 82500
attr interpolationmode none
attr title "transmitting packet byte length, sum"
attr unit bytes
statistic NetK.rte[2].queue[3] txBytes:histogram
field count 55
field mean 1500
field stddev 0
field min 1500
field max 1500
field sum 82500
field sqrsum 123750000
attr interpolationmode none
attr title "transmitting packet byte length, histogram"
attr unit bytes
bin	-inf	0
bin	1499	0
bin	1500	55
bin	1501	0
scalar NetK.rte[2].queue[3] busy:timeavg 0.00022
attr interpolationmode sample-hold
attr title "server busy state, timeavg"
scalar NetK.rte[2].queue[3] qlen:timeavg 0
attr interpolationmode sample-hold
attr title "queue length, timeavg"
scalar NetK.rte[2].queue[3] qlen:max 0
attr interpolationmode sample-hold
attr title "queue length, max"
scalar NetK.rte[2].queue[3] drop:count 0
attr interpolationmode none
attr title "dropped packet byte length, count"
attr unit bytes
scalar NetK.rte[2].queue[3] drop:sum 0
attr interpolationmode none
attr title "dropped packet byte length, sum"
attr unit bytes
statistic NetK.rte[2].queue[4] "drop count"
field count 0
field mean nan
field stddev nan
field min nan
field max nan
field sum 0
field sqrsum 0
bin	-inf	0
bin	0	0
bin	1	0
scalar NetK.rte[2].queue[4] rxBytes:count 10482
attr interpolationmode none
attr title "received packet byte length, count"
attr unit bytes
scalar NetK.rte[2].queue[4] rxBytes:sum 15723000
attr interpolationmode none
attr title "received packet byte length, sum"
attr unit bytes
statistic NetK.rte[2].queue[4] rxBytes:histogram
field count 10482
field mean 1500
field stddev 0
field min 1500
field max 1500
field sum 15723000
field sqrsum 23584500000
attr interpolationmode none
attr title "received packet byte length, histogram"
attr unit bytes
bin	-inf	0
bin	1499	0
bin	1500	10482
bin	1501	0
scalar NetK.rte[2].queue[4] txBytes:count 59
attr interpolationmode none
attr title "transmitting packet byte length, count"
attr unit bytes
scalar NetK.rte[2].queue[4] txBytes:sum 88500
attr interpolationmode none
attr title "transmitting packet byte length, sum"
attr unit bytes
statistic NetK.rte[2].queue[4] txBytes:histogram
field count 59
field mean 1500
field stddev 0
field min 1500
field max 1500
field sum 88500
field sqrsum 132750000
attr interpolationmode none
attr title "transmitting packet byte length, histogram"
attr unit bytes
bin	-inf	0
bin	1499	0
bin	1500	59
bin	1501	0
scalar NetK.rte[2].queue[4] busy:timeavg 0.000236
attr interpolationmode sample-hold
attr title "server busy state, timeavg"
scalar NetK.rte[2].queue[4] qlen:timeavg 0
attr interpolationmode sample-hold
attr title "queue length, timeavg"
scalar NetK.rte[2].queue[4] qlen:max 0
attr interpolationmode sample-hold
attr title "queue length, max"
scalar NetK.rte[2].queue[4] drop:count 0
attr interpolationmode none
attr title "dropped packet byte length, count"
attr unit bytes
scalar NetK.rte[2].queue[4] drop:sum 0
attr interpolationmode none
attr title "dropped packet byte length, sum"
attr unit bytes
statistic NetK.rte[2].queue[5] "drop count"
field count 0
field mean nan
field stddev nan
field min nan
field max nan
field sum 0
field sqrsum 0
bin	-inf	0
bin	0	0
bin	1	0
scalar NetK.rte[2].queue[5] rxBytes:count 41
attr interpolationmode none
attr title "received packet byte length, count"
attr unit bytes
scalar NetK.rte[2].queue[5] rxBytes:sum 61500
attr interpolationmode none
attr title "received packet byte length, sum"
attr unit bytes
statistic NetK.rte[2].queue[5] rxBytes:histogram
field count 41
field mean 1500
field stddev 0
field min 1500
field max 1500
field sum 61500
field sqrsum 92250000
attr interpolationmode none
attr title "received packet byte length, histogram"
attr unit bytes
bin	-inf	0
bin	1499	0
bin	1500	41
bin	1501	0
scalar NetK.rte[2].queue[5] txBytes:count 51
attr interpolationmode none
attr title "transmitting packet byte length, count"
attr unit bytes
scalar NetK.rte[2].queue[5] txBytes:sum 76500
attr interpolationmode none
attr title "transmitting packet byte length, sum"
attr unit bytes
statistic NetK.rte[2].queue[5] txBytes:histogram
field count 51
field mean 1500
field stddev 0
field min 1500
field max 1500
field sum 76500
field sqrsum 114750000
attr interpolationmode none
attr title "transmitting packet byte length, histogram"
attr unit bytes
bin	-inf	0
bin	1499	0
bin	1500	51
bin	1501	0
scalar NetK.rte[2].queue[5] busy:timeavg 0.000204
attr interpolationmode sample-hold
attr title "server busy state, timeavg"
scalar NetK.rte[2].queue[5] qlen:timeavg 0
attr interpolationmode sample-hold
attr title "queue length, timeavg"
scalar NetK.rte[2].queue[5] qlen:max 0
attr interpolationmode sample-hold
attr title "queue length, max"
scalar NetK.rte[2].queue[5] drop:count 0
attr interpolationmode none
attr title "dropped packet byte length, count"
attr unit bytes
scalar NetK.rte[2].queue[5] drop:sum 0
attr interpolationmode none
attr title "dropped packet byte length, sum"
attr unit bytes
scalar NetK.rte[3].app #sent 0
scalar NetK.rte[3].app #received 0
statistic NetK.rte[3].app "hop count"
field count 0
field mean nan
field stddev nan
field min nan
field max nan
field sum 0
field sqrsum 0
bin	-inf	0
bin	0	0
bin	1	0
scalar NetK.rte[3].app hopCount:mean nan
attr interpolationmode none
attr title "hop count of arrived packets, mean"
scalar NetK.rte[3].app hopCount:max nan
attr interpolationmode none
attr title "hop count of arrived packets, max"
scalar NetK.rte[3].app hopCount:count 0
attr interpolationmode none
attr title "hop count of arrived packets, count"
statistic NetK.rte[3].app hopCount:histogram
field count 0
field mean nan
field stddev nan
field min nan
field max nan
field sum 0
field sqrsum 0
attr interpolationmode none
attr title "hop count of arrived packets, histogram"
bin	-inf	0
bin	0	0
bin	1	0
scalar NetK.rte[3].app endToEndDelay:mean nan
attr interpolationmode none
attr title "end-to-end delay of arrived packets, mean"
attr unit s
scalar NetK.rte[3].app endToEndDelay:max nan
attr interpolationmode none
attr title "end-to-end delay of arrived packets, max"
attr unit s
scalar NetK.rte[3].app endToEndDelay:count 0
attr interpolationmode none
attr title "end-to-end delay of arrived packets, count"
attr unit s
statistic NetK.rte[3].routing TopoLinkCounter:histogram
field count 0
field mean nan
field stddev nan
field min nan
field max nan
field sum 0
field sqrsum 0
attr interpolationmode none
attr title "Number of links enabled in Topology, histogram"
bin	-inf	0
bin	0	0
bin	1	0
scalar NetK.rte[3].routing TopoLinkCounter:mean nan
attr interpolationmode none
attr title "Number of links enabled in Topology, mean"
scalar NetK.rte[3].routing TopoLinkCounter:max nan
attr interpolationmode none
attr title "Number of links enabled in Topology, max"
scalar NetK.rte[3].routing TopoLinkCounter:count 0
attr interpolationmode none
attr title "Number of links enabled in Topology, count"
statistic NetK.rte[3].routing outputIf:histogram
field count 0
field mean nan
field stddev nan
field min nan
field max nan
field sum 0
field sqrsum 0
attr interpolationmode none
attr title "output interface for each routed packet, histogram"
bin	-inf	0
bin	0	0
bin	1	0
scalar NetK.rte[3].routing drop:count 0
attr interpolationmode none
attr title "dropped packet byte length, count"
attr unit bytes
scalar NetK.rte[3].routing drop:sum 0
attr interpolationmode none
attr title "dropped packet byte length, sum"
attr unit bytes
statistic NetK.rte[3].routing hopCount:histogram
field count 0
field mean nan
field stddev nan
field min nan
field max nan
field sum 0
field sqrsum 0
attr interpolationmode none
attr title "count number of hops for packet, histogram"
bin	-inf	0
bin	0	0
bin	1	0
scalar NetK.rte[3].routing hopCount:mean nan
attr interpolationmode none
attr title "count number of hops for packet, mean"
scalar NetK.rte[3].routing hopCount:max nan
attr interpolationmode none
attr title "count number of hops for packet, max"
scalar NetK.rte[3].routing hopCount:count 0
attr interpolationmode none
attr title "count number of hops for packet, count"
statistic NetK.rte[3].queue[0] "drop count"
field count 0
field mean nan
field stddev nan
field min nan
field max nan
field sum 0
field sqrsum 0
bin	-inf	0
bin	0	0
bin	1	0
scalar NetK.rte[3].queue[0] rxBytes:count 55
attr interpolationmode none
attr title "received packet byte length, count"
attr unit bytes
scalar NetK.rte[3].queue[0] rxBytes:sum 82500
attr interpolationmode none
attr title "received packet byte length, sum"
attr unit bytes
statistic NetK.rte[3].queue[0] rxBytes:histogram
field count 55
field mean 1500
field stddev 0
field min 1500
field max 1500
field sum 82500
field sqrsum 123750000
attr interpolationmode none
attr title "received packet byte length, histogram"
attr unit bytes
bin	-inf	0
bin	1499	0
bin	1500	55
bin	1501	0
scalar NetK.rte[3].queue[0] txBytes:count 87
attr interpolationmode none
attr title "transmitting packet byte length, count"
attr unit bytes
scalar NetK.rte[3].queue[0] txBytes:sum 130500
attr interpolationmode none
attr title "transmitting packet byte length, sum"
attr unit bytes
statistic NetK.rte[3].queue[0] txBytes:histogram
field count 87
field mean 1500
field stddev 0
field min 1500
field max 1500
field sum 130500
field sqrsum 195750000
attr interpolationmode none
attr title "transmitting packet byte length, histogram"
attr unit bytes
bin	-inf	0
bin	1499	0
bin	1500	87
bin	1501	0
scalar NetK.rte[3].queue[0] busy:timeavg 0.000348
attr interpolationmode sample-hold
attr title "server busy state, timeavg"
scalar NetK.rte[3].queue[0] qlen:timeavg 0
attr interpolationmode sample-hold
attr title "queue length, timeavg"
scalar NetK.rte[3].queue[0] qlen:max 0
attr interpolationmode sample-hold
attr title "queue length, max"
scalar NetK.rte[3].queue[0] drop:count 0
attr interpolationmode none
attr title "dropped packet byte length, count"
attr unit bytes
scalar NetK.rte[3].queue[0] drop:sum 0
attr interpolationmode none
attr title "dropped packet byte length, sum"
attr unit bytes
statistic NetK.rte[3].queue[1] "drop count"
field count 0
field mean nan
field stddev nan
field min nan
field max nan
field sum 0
field sqrsum 0
bin	-inf	0
bin	0	0
bin	1	0
scalar NetK.rte[3].queue[1] rxBytes:count 102
attr interpolationmode none
attr title "received packet byte length, count"
attr unit bytes
scalar NetK.rte[3].queue[1] rxBytes:sum 153000
attr interpolationmode none
attr title "received packet byte length, sum"
attr unit bytes
statistic NetK.rte[3].queue[1] rxBytes:histogram
field count 102
field mean 1500
field stddev 0
field min 1500
field max 1500
field sum 153000
field sqrsum 229500000
attr interpolationmode none
attr title "received packet byte length, histogram"
attr unit bytes
bin	-inf	0
bin	1499	0
bin	1500	102
bin	1501	0
scalar NetK.rte[3].queue[1] txBytes:count 63
attr interpolationmode none
attr title "transmitting packet byte length, count"
attr unit bytes
scalar NetK.rte[3].queue[1] txBytes:sum 94500
attr interpolationmode none
attr title "transmitting packet byte length, sum"
attr unit bytes
statistic NetK.rte[3].queue[1] txBytes:histogram
field count 63
field mean 1500
field stddev 0
field min 1500
field max 1500
field sum 94500
field sqrsum 141750000
attr interpolationmode none
attr title "transmitting packet byte length, histogram"
attr unit bytes
bin	-inf	0
bin	1499	0
bin	1500	63
bin	1501	0
scalar NetK.rte[3].queue[1] busy:timeavg 0.000252
attr interpolationmode sample-hold
attr title "server busy state, timeavg"
scalar NetK.rte[3].queue[1] qlen:timeavg 0
attr interpolationmode sample-hold
attr title "queue length, timeavg"
scalar NetK.rte[3].queue[1] qlen:max 0
attr interpolationmode sample-hold
attr title "queue length, max"
scalar NetK.rte[3].queue[1] drop:count 0
attr interpolationmode none
attr title "dropped packet byte length, count"
attr unit bytes
scalar NetK.rte[3].queue[1] drop:sum 0
attr interpolationmode none
attr title "dropped packet byte length, sum"
attr unit bytes
statistic NetK.rte[3].queue[2] "drop count"
field count 0
field mean nan
field stddev nan
field min nan
field max nan
field sum 0
field sqrsum 0
bin	-inf	0
bin	0	0
bin	1	0
scalar NetK.rte[3].queue[2] rxBytes:count 63
attr interpolationmode none
attr title "received packet byte length, count"
attr unit bytes
scalar NetK.rte[3].queue[2] rxBytes:sum 94500
attr interpolationmode none
attr title "received packet byte length, sum"
attr unit bytes
statistic NetK.rte[3].queue[2] rxBytes:histogram
field count 63
field mean 1500
field stddev 0
field min 1500
field max 1500
field sum 94500
field sqrsum 141750000
attr interpolationmode none
attr title "received packet byte length, histogram"
attr unit bytes
bin	-inf	0
bin	1499	0
bin	1500	63
bin	1501	0
scalar NetK.rte[3].queue[2] txBytes:count 79
attr interpolationmode none
attr title "transmitting packet byte length, count"
attr unit bytes
scalar NetK.rte[3].queue[2] txBytes:sum 118500
attr interpolationmode none
attr title "transmitting packet byte length, sum"
attr unit bytes
statistic NetK.rte[3].queue[2] txBytes:histogram
field count 79
field mean 1500
field stddev 0
field min 1500
field max 1500
field sum 118500
field sqrsum 177750000
attr interpolationmode none
attr title "transmitting packet byte length, histogram"
attr unit bytes
bin	-inf	0
bin	1499	0
bin	1500	79
bin	1501	0
scalar NetK.rte[3].queue[2] busy:timeavg 0.000316
attr interpolationmode sample-hold
attr title "server busy state, timeavg"
scalar NetK.rte[3].queue[2] qlen:timeavg 0
attr interpolationmode sample-hold
attr title "queue length, timeavg"
scalar NetK.rte[3].queue[2] qlen:max 0
attr interpolationmode sample-hold
attr title "queue length, max"
scalar NetK.rte[3].queue[2] drop:count 0
attr interpolationmode none
attr title "dropped packet byte length, count"
attr unit bytes
scalar NetK.rte[3].queue[2] drop:sum 0
attr interpolationmode none
attr title "dropped packet byte length, sum"
attr unit bytes
statistic NetK.rte[3].queue[3] "drop count"
field count 0
field mean nan
field stddev nan
field min nan
field max nan
field sum 0
field sqrsum 0
bin	-inf	0
bin	0	0
bin	1	0
scalar NetK.rte[3].queue[3] rxBytes:count 92
attr interpolationmode none
attr title "received packet byte length, count"
attr unit bytes
scalar NetK.rte[3].queue[3] rxBytes:sum 138000
attr interpolationmode none
attr title "received packet byte length, sum"
attr unit bytes
statistic NetK.rte[3].queue[3] rxBytes:histogram
field count 92
field mean 1500
field stddev 0
field min 1500
field max 1500
field sum 138000
field sqrsum 207000000
attr interpolationmode none
attr title "received packet byte length, histogram"
attr unit bytes
bin	-inf	0
bin	1499	0
bin	1500	92
bin	1501	0
scalar NetK.rte[3].queue[3] txBytes:count 87
attr interpolationmode none
attr title "transmitting packet byte length, count"
attr unit bytes
scalar NetK.rte[3].queue[3] txBytes:sum 130500
attr interpolationmode none
attr title "transmitting packet byte length, sum"
attr unit bytes
statistic NetK.rte[3].queue[3] txBytes:histogram
field count 87
field mean 1500
field stddev 0
field min 1500
field max 1500
field sum 130500
field sqrsum 195750000
attr interpolationmode none
attr title "transmitting packet byte length, histogram"
attr unit bytes
bin	-inf	0
bin	1499	0
bin	1500	87
bin	1501	0
scalar NetK.rte[3].queue[3] busy:timeavg 0.000348
attr interpolationmode sample-hold
attr title "server busy state, timeavg"
scalar NetK.rte[3].queue[3] qlen:timeavg 0
attr interpolationmode sample-hold
attr title "queue length, timeavg"
scalar NetK.rte[3].queue[3] qlen:max 0
attr interpolationmode sample-hold
attr title "queue length, max"
scalar NetK.rte[3].queue[3] drop:count 0
attr interpolationmode none
attr title "dropped packet byte length, count"
attr unit bytes
scalar NetK.rte[3].queue[3] drop:sum 0
attr interpolationmode none
attr title "dropped packet byte length, sum"
attr unit bytes
statistic NetK.rte[3].queue[4] "drop count"
field count 0
field mean nan
field stddev nan
field min nan
field max nan
field sum 0
field sqrsum 0
bin	-inf	0
bin	0	0
bin	1	0
scalar NetK.rte[3].queue[4] rxBytes:count 95
attr interpolationmode none
attr title "received packet byte length, count"
attr unit bytes
scalar NetK.rte[3].queue[4] rxBytes:sum 142500
attr interpolationmode none
attr title "received packet byte length, sum"
attr unit bytes
statistic NetK.rte[3].queue[4] rxBytes:histogram
field count 95
field mean 1500
field stddev 0
field min 1500
field max 1500
field sum 142500
field sqrsum 213750000
attr interpolationmode none
attr title "received packet byte length, histogram"
attr unit bytes
bin	-inf	0
bin	1499	0
bin	1500	95
bin	1501	0
scalar NetK.rte[3].queue[4] txBytes:count 54
attr interpolationmode none
attr title "transmitting packet byte length, count"
attr unit bytes
scalar NetK.rte[3].queue[4] txBytes:sum 81000
attr interpolationmode none
attr title "transmitting packet byte length, sum"
attr unit bytes
statistic NetK.rte[3].queue[4] txBytes:histogram
field count 54
field mean 1500
field stddev 0
field min 1500
field max 1500
field sum 81000
field sqrsum 121500000
attr interpolationmode none
attr title "transmitting packet byte length, histogram"
attr unit bytes
bin	-inf	0
bin	1499	0
bin	1500	54
bin	1501	0
scalar NetK.rte[3].queue[4] busy:timeavg 0.000216
attr interpolationmode sample-hold
attr title "server busy state, timeavg"
scalar NetK.rte[3].queue[4] qlen:timeavg 0
attr interpolationmode sample-hold
attr title "queue length, timeavg"
scalar NetK.rte[3].queue[4] qlen:max 0
attr interpolationmode sample-hold
attr title "queue length, max"
scalar NetK.rte[3].queue[4] drop:count 0
attr interpolationmode none
attr title "dropped packet byte length, count"
attr unit bytes
scalar NetK.rte[3].queue[4] drop:sum 0
attr interpolationmode none
attr title "dropped packet byte length, sum"
attr unit bytes
statistic NetK.rte[3].queue[5] "drop count"
field count 0
field mean nan
field stddev nan
field min nan
field max nan
field sum 0
field sqrsum 0
bin	-inf	0
bin	0	0
bin	1	0
scalar NetK.rte[3].queue[5] rxBytes:count 98
attr interpolationmode none
attr title "received packet byte length, count"
attr unit bytes
scalar NetK.rte[3].queue[5] rxBytes:sum 147000
attr interpolationmode none
attr title "received packet byte length, sum"
attr unit bytes
statistic NetK.rte[3].queue[5] rxBytes:histogram
field count 98
field mean 1500
field stddev 0
field min 1500
field max 1500
field sum 147000
field sqrsum 220500000
attr interpolationmode none
attr title "received packet byte length, histogram"
attr unit bytes
bin	-inf	0
bin	1499	0
bin	1500	98
bin	1501	0
scalar NetK.rte[3].queue[5] txBytes:count 108
attr interpolationmode none
attr title "transmitting packet byte length, count"
attr unit bytes
scalar NetK.rte[3].queue[5] txBytes:sum 162000
attr interpolationmode none
attr title "transmitting packet byte length, sum"
attr unit bytes
statistic NetK.rte[3].queue[5] txBytes:histogram
field count 108
field mean 1500
field stddev 0
field min 1500
field max 1500
field sum 162000
field sqrsum 243000000
attr interpolationmode none
attr title "transmitting packet byte length, histogram"
attr unit bytes
bin	-inf	0
bin	1499	0
bin	1500	108
bin	1501	0
scalar NetK.rte[3].queue[5] busy:timeavg 0.000432
attr interpolationmode sample-hold
attr title "server busy state, timeavg"
scalar NetK.rte[3].queue[5] qlen:timeavg 0
attr interpolationmode sample-hold
attr title "queue length, timeavg"
scalar NetK.rte[3].queue[5] qlen:max 0
attr interpolationmode sample-hold
attr title "queue length, max"
scalar NetK.rte[3].queue[5] drop:count 0
attr interpolationmode none
attr title "dropped packet byte length, count"
attr unit bytes
scalar NetK.rte[3].queue[5] drop:sum 0
attr interpolationmode none
attr title "dropped packet byte length, sum"
attr unit bytes
scalar NetK.rte[4].app #sent 0
scalar NetK.rte[4].app #received 0
statistic NetK.rte[4].app "hop count"
field count 0
field mean nan
field stddev nan
field min nan
field max nan
field sum 0
field sqrsum 0
bin	-inf	0
bin	0	0
bin	1	0
scalar NetK.rte[4].app hopCount:mean nan
attr interpolationmode none
attr title "hop count of arrived packets, mean"
scalar NetK.rte[4].app hopCount:max nan
attr interpolationmode none
attr title "hop count of arrived packets, max"
scalar NetK.rte[4].app hopCount:count 0
attr interpolationmode none
attr title "hop count of arrived packets, count"
statistic NetK.rte[4].app hopCount:histogram
field count 0
field mean nan
field stddev nan
field min nan
field max nan
field sum 0
field sqrsum 0
attr interpolationmode none
attr title "hop count of arrived packets, histogram"
bin	-inf	0
bin	0	0
bin	1	0
scalar NetK.rte[4].app endToEndDelay:mean nan
attr interpolationmode none
attr title "end-to-end delay of arrived packets, mean"
attr unit s
scalar NetK.rte[4].app endToEndDelay:max nan
attr interpolationmode none
attr title "end-to-end delay of arrived packets, max"
attr unit s
scalar NetK.rte[4].app endToEndDelay:count 0
attr interpolationmode none
attr title "end-to-end delay of arrived packets, count"
attr unit s
statistic NetK.rte[4].routing TopoLinkCounter:histogram
field count 0
field mean nan
field stddev nan
field min nan
field max nan
field sum 0
field sqrsum 0
attr interpolationmode none
attr title "Number of links enabled in Topology, histogram"
bin	-inf	0
bin	0	0
bin	1	0
scalar NetK.rte[4].routing TopoLinkCounter:mean nan
attr interpolationmode none
attr title "Number of links enabled in Topology, mean"
scalar NetK.rte[4].routing TopoLinkCounter:max nan
attr interpolationmode none
attr title "Number of links enabled in Topology, max"
scalar NetK.rte[4].routing TopoLinkCounter:count 0
attr interpolationmode none
attr title "Number of links enabled in Topology, count"
statistic NetK.rte[4].routing outputIf:histogram
field count 0
field mean nan
field stddev nan
field min nan
field max nan
field sum 0
field sqrsum 0
attr interpolationmode none
attr title "output interface for each routed packet, histogram"
bin	-inf	0
bin	0	0
bin	1	0
scalar NetK.rte[4].routing drop:count 0
attr interpolationmode none
attr title "dropped packet byte length, count"
attr unit bytes
scalar NetK.rte[4].routing drop:sum 0
attr interpolationmode none
attr title "dropped packet byte length, sum"
attr unit bytes
statistic NetK.rte[4].routing hopCount:histogram
field count 0
field mean nan
field stddev nan
field min nan
field max nan
field sum 0
field sqrsum 0
attr interpolationmode none
attr title "count number of hops for packet, histogram"
bin	-inf	0
bin	0	0
bin	1	0
scalar NetK.rte[4].routing hopCount:mean nan
attr interpolationmode none
attr title "count number of hops for packet, mean"
scalar NetK.rte[4].routing hopCount:max nan
attr interpolationmode none
attr title "count number of hops for packet, max"
scalar NetK.rte[4].routing hopCount:count 0
attr interpolationmode none
attr title "count number of hops for packet, count"
statistic NetK.rte[4].queue[0] "drop count"
field count 0
field mean nan
field stddev nan
field min nan
field max nan
field sum 0
field sqrsum 0
bin	-inf	0
bin	0	0
bin	1	0
scalar NetK.rte[4].queue[0] rxBytes:count 63
attr interpolationmode none
attr title "received packet byte length, count"
attr unit bytes
scalar NetK.rte[4].queue[0] rxBytes:sum 94500
attr interpolationmode none
attr title "received packet byte length, sum"
attr unit bytes
statistic NetK.rte[4].queue[0] rxBytes:histogram
field count 63
field mean 1500
field stddev 0
field min 1500
field max 1500
field sum 94500
field sqrsum 141750000
attr interpolationmode none
attr title "received packet byte length, histogram"
attr unit bytes
bin	-inf	0
bin	1499	0
bin	1500	63
bin	1501	0
scalar NetK.rte[4].queue[0] txBytes:count 102
attr interpolationmode none
attr title "transmitting packet byte length, count"
attr unit bytes
scalar NetK.rte[4].queue[0] txBytes:sum 153000
attr interpolationmode none
attr title "transmitting packet byte length, sum"
attr unit bytes
statistic NetK.rte[4].queue[0] txBytes:histogram
field count 102
field mean 1500
field stddev 0
field min 1500
field max 1500
field sum 153000
field sqrsum 229500000
attr interpolationmode none
attr title "transmitting packet byte length, histogram"
attr unit bytes
bin	-inf	0
bin	1499	0
bin	1500	102
bin	1501	0
scalar NetK.rte[4].queue[0] busy:timeavg 0.000408
attr interpolationmode sample-hold
attr title "server busy state, timeavg"
scalar NetK.rte[4].queue[0] qlen:timeavg 0
attr interpolationmode sample-hold
attr title "queue length, timeavg"
scalar NetK.rte[4].queue[0] qlen:max 0
attr interpolationmode sample-hold
attr title "queue length, max"
scalar NetK.rte[4].queue[0] drop:count 0
attr interpolationmode none
attr title "dropped packet byte length, count"
attr unit bytes
scalar NetK.rte[4].queue[0] drop:sum 0
attr interpolationmode none
attr title "dropped packet byte length, sum"
attr unit bytes
statistic NetK.rte[4].queue[1] "drop count"
field count 0
field mean nan
field stddev nan
field min nan
field max nan
field sum 0
field sqrsum 0
bin	-inf	0
bin	0	0
bin	1	0
scalar NetK.rte[4].queue[1] rxBytes:count 81
attr interpolationmode none
attr title "received packet byte length, count"
attr unit bytes
scalar NetK.rte[4].queue[1] rxBytes:sum 121500
attr interpolationmode none
attr title "received packet byte length, sum"
attr unit bytes
statistic NetK.rte[4].queue[1] rxBytes:histogram
field count 81
field mean 1500
field stddev 0
field min 1500
field max 1500
field sum 121500
field sqrsum 182250000
attr interpolationmode none
attr title "received packet byte length, histogram"
attr unit bytes
bin	-inf	0
bin	1499	0
bin	1500	81
bin	1501	0
scalar NetK.rte[4].queue[1] txBytes:count 50
attr interpolationmode none
attr title "transmitting packet byte length, count"
attr unit bytes
scalar NetK.rte[4].queue[1] txBytes:sum 75000
attr interpolationmode none
attr title "transmitting packet byte length, sum"
attr unit bytes
statistic NetK.rte[4].queue[1] txBytes:histogram
field count 50
field mean 1500
field stddev 0
field min 1500
field max 1500
field sum 75000
field sqrsum 112500000
attr interpolationmode none
attr title "transmitting packet byte length, histogram"
attr unit bytes
bin	-inf	0
bin	1499	0
bin	1500	50
bin	1501	0
scalar NetK.rte[4].queue[1] busy:timeavg 0.0002
attr interpolationmode sample-hold
attr title "server busy state, timeavg"
scalar NetK.rte[4].queue[1] qlen:timeavg 0
attr interpolationmode sample-hold
attr title "queue length, timeavg"
scalar NetK.rte[4].queue[1] qlen:max 0
attr interpolationmode sample-hold
attr title "queue length, max"
scalar NetK.rte[4].queue[1] drop:count 0
attr interpolationmode none
attr title "dropped packet byte length, count"
attr unit bytes
scalar NetK.rte[4].queue[1] drop:sum 0
attr interpolationmode none
attr title "dropped packet byte length, sum"
attr unit bytes
statistic NetK.rte[4].queue[2] "drop count"
field count 0
field mean nan
field stddev nan
field min nan
field max nan
field sum 0
field sqrsum 0
bin	-inf	0
bin	0	0
bin	1	0
scalar NetK.rte[4].queue[2] rxBytes:count 41
attr interpolationmode none
attr title "received packet byte length, count"
attr unit bytes
scalar NetK.rte[4].queue[2] rxBytes:sum 61500
attr interpolationmode none
attr title "received packet byte length, sum"
attr unit bytes
statistic NetK.rte[4].queue[2] rxBytes:histogram
field count 41
field mean 1500
field stddev 0
field min 1500
field max 1500
field sum 61500
field sqrsum 92250000
attr interpolationmode none
attr title "received packet byte length, histogram"
attr unit bytes
bin	-inf	0
bin	1499	0
bin	1500	41
bin	1501	0
scalar NetK.rte[4].queue[2] txBytes:count 62
attr interpolationmode none
attr title "transmitting packet byte length, count"
attr unit bytes
scalar NetK.rte[4].queue[2] txBytes:sum 93000
attr interpolationmode none
attr title "transmitting packet byte length, sum"
attr unit bytes
statistic NetK.rte[4].queue[2] txBytes:histogram
field count 62
field mean 1500
field stddev 0
field min 1500
field max 1500
field sum 93000
field sqrsum 139500000
attr interpolationmode none
attr title "transmitting packet byte length, histogram"
attr unit bytes
bin	-inf	0
bin	1499	0
bin	1500	62
bin	1501	0
scalar NetK.rte[4].queue[2] busy:timeavg 0.000248
attr interpolationmode sample-hold
attr title "server busy state, timeavg"
scalar NetK.rte[4].queue[2] qlen:timeavg 0
attr interpolationmode sample-hold
attr title "queue length, timeavg"
scalar NetK.rte[4].queue[2] qlen:max 0
attr interpolationmode sample-hold
attr title "queue length, max"
scalar NetK.rte[4].queue[2] drop:count 0
attr interpolationmode none
attr title "dropped packet byte length, count"
attr unit bytes
scalar NetK.rte[4].queue[2] drop:sum 0
attr interpolationmode none
attr title "dropped packet byte length, sum"
attr unit bytes
statistic NetK.rte[4].queue[3] "drop count"
field count 0
field mean nan
field stddev nan
field min nan
field max nan
field sum 0
field sqrsum 0
bin	-inf	0
bin	0	0
bin	1	0
scalar NetK.rte[4].queue[3] rxBytes:count 55
attr interpolationmode none
attr title "received packet byte length, count"
attr unit bytes
scalar NetK.rte[4].queue[3] rxBytes:sum 82500
attr interpolationmode none
attr title "received packet byte length, sum"
attr unit bytes
statistic NetK.rte[4].queue[3] rxBytes:histogram
field count 55
field mean 1500
field stddev 0
field min 1500
field max 1500
field sum 82500
field sqrsum 123750000
attr interpolationmode none
attr title "received packet byte length, histogram"
attr unit bytes
bin	-inf	0
bin	1499	0
bin	1500	55
bin	1501	0
scalar NetK.rte[4].queue[3] txBytes:count 83
attr interpolationmode none
attr title "transmitting packet byte length, count"
attr unit bytes
scalar NetK.rte[4].queue[3] txBytes:sum 124500
attr interpolationmode none
attr title "transmitting packet byte length, sum"
attr unit bytes
statistic NetK.rte[4].queue[3] txBytes:histogram
field count 83
field mean 1500
field stddev 0
field min 1500
field max 1500
field sum 124500
field sqrsum 186750000
attr interpolationmode none
attr title "transmitting packet byte length, histogram"
attr unit bytes
bin	-inf	0
bin	1499	0
bin	1500	83
bin	1501	0
scalar NetK.rte[4].queue[3] busy:timeavg 0.000332
attr interpolationmode sample-hold
attr title "server busy state, timeavg"
scalar NetK.rte[4].queue[3] qlen:timeavg 0
attr interpolationmode sample-hold
attr title "queue length, timeavg"
scalar NetK.rte[4].queue[3] qlen:max 0
attr interpolationmode sample-hold
attr title "queue length, max"
scalar NetK.rte[4].queue[3] drop:count 0
attr interpolationmode none
attr title "dropped packet byte length, count"
attr unit bytes
scalar NetK.rte[4].queue[3] drop:sum 0
attr interpolationmode none
attr title "dropped packet byte length, sum"
attr unit bytes
statistic NetK.rte[4].queue[4] "drop count"
field count 0
field mean nan
field stddev nan
field min nan
field max nan
field sum 0
field sqrsum 0
bin	-inf	0
bin	0	0
bin	1	0
scalar NetK.rte[4].queue[4] rxBytes:count 68
attr interpolationmode none
attr title "received packet byte length, count"
attr unit bytes
scalar NetK.rte[4].queue[4] rxBytes:sum 102000
attr interpolationmode none
attr title "received packet byte length, sum"
attr unit bytes
statistic NetK.rte[4].queue[4] rxBytes:histogram
field count 68
field mean 1500
field stddev 0
field min 1500
field max 1500
field sum 102000
field sqrsum 153000000
attr interpolationmode none
attr title "received packet byte length, histogram"
attr unit bytes
bin	-inf	0
bin	1499	0
bin	1500	68
bin	1501	0
scalar NetK.rte[4].queue[4] txBytes:count 36
attr interpolationmode none
attr title "transmitting packet byte length, count"
attr unit bytes
scalar NetK.rte[4].queue[4] txBytes:sum 54000
attr interpolationmode none
attr title "transmitting packet byte length, sum"
attr unit bytes
statistic NetK.rte[4].queue[4] txBytes:histogram
field count 36
field mean 1500
field stddev 0
field min 1500
field max 1500
field sum 54000
field sqrsum 81000000
attr interpolationmode none
attr title "transmitting packet byte length, histogram"
attr unit bytes
bin	-inf	0
bin	1499	0
bin	1500	36
bin	1501	0
scalar NetK.rte[4].queue[4] busy:timeavg 0.000144
attr interpolationmode sample-hold
attr title "server busy state, timeavg"
scalar NetK.rte[4].queue[4] qlen:timeavg 0
attr interpolationmode sample-hold
attr title "queue length, timeavg"
scalar NetK.rte[4].queue[4] qlen:max 0
attr interpolationmode sample-hold
attr title "queue length, max"
scalar NetK.rte[4].queue[4] drop:count 0
attr interpolationmode none
attr title "dropped packet byte length, count"
attr unit bytes
scalar NetK.rte[4].queue[4] drop:sum 0
attr interpolationmode none
attr title "dropped packet byte length, sum"
attr unit bytes
statistic NetK.rte[4].queue[5] "drop count"
field count 0
field mean nan
field stddev nan
field min nan
field max nan
field sum 0
field sqrsum 0
bin	-inf	0
bin	0	0
bin	1	0
scalar NetK.rte[4].queue[5] rxBytes:count 65
attr interpolationmode none
attr title "received packet byte length, count"
attr unit bytes
scalar NetK.rte[4].queue[5] rxBytes:sum 97500
attr interpolationmode none
attr title "received packet byte length, sum"
attr unit bytes
[...]
attr unit bytes
scalar NetK.rte[23].queue[3] drop:sum 0
attr interpolationmode none
attr title "dropped packet byte length, sum"
attr unit bytes
statistic NetK.rte[23].queue[4] "drop count"
field count 0
field mean nan
field stddev nan
field min nan
field max nan
field sum 0
field sqrsum 0
bin	-inf	0
bin	0	0
bin	1	0
scalar NetK.rte[23].queue[4] rxBytes:count 36
attr interpolationmode none
attr title "received packet byte length, count"
attr unit bytes
scalar NetK.rte[23].queue[4] rxBytes:sum 54000
attr interpolationmode none
attr title "received packet byte length, sum"
attr unit bytes
statistic NetK.rte[23].queue[4] rxBytes:histogram
field count 36
field mean 1500
field stddev 0
field min 1500
field max 1500
field sum 54000
field sqrsum 81000000
attr interpolationmode none
attr title "received packet byte length, histogram"
attr unit bytes
bin	-inf	0
bin	1499	0
bin	1500	36
bin	1501	0
scalar NetK.rte[23].queue[4] txBytes:count 68
attr interpolationmode none
attr title "transmitting packet byte length, count"
attr unit bytes
scalar NetK.rte[23].queue[4] txBytes:sum 102000
attr interpolationmode none
attr title "transmitting packet byte length, sum"
attr unit bytes
statistic NetK.rte[23].queue[4] txBytes:histogram
field count 68
field mean 1500
field stddev 0
field min 1500
field max 1500
field sum 102000
field sqrsum 153000000
attr interpolationmode none
attr title "transmitting packet byte length, histogram"
attr unit bytes
bin	-inf	0
bin	1499	0
bin	1500	68
bin	1501	0
scalar NetK.rte[23].queue[4] busy:timeavg 0.000272
attr interpolationmode sample-hold
attr title "server busy state, timeavg"
scalar NetK.rte[23].queue[4] qlen:timeavg 0
attr interpolationmode sample-hold
attr title "queue length, timeavg"
scalar NetK.rte[23].queue[4] qlen:max 0
attr interpolationmode sample-hold
attr title "queue length, max"
scalar NetK.rte[23].queue[4] drop:count 0
attr interpolationmode none
attr title "dropped packet byte length, count"
attr unit bytes
scalar NetK.rte[23].queue[4] drop:sum 0
attr interpolationmode none
attr title "dropped packet byte length, sum"
attr unit bytes
statistic NetK.rte[23].queue[5] "drop count"
field count 0
field mean nan
field stddev nan
field min nan
field max nan
field sum 0
field sqrsum 0
bin	-inf	0
bin	0	0
bin	1	0
scalar NetK.rte[23].queue[5] rxBytes:count 115
attr interpolationmode none
attr title "received packet byte length, count"
attr unit bytes
scalar NetK.rte[23].queue[5] rxBytes:sum 172500
attr interpolationmode none
attr title "received packet byte length, sum"
attr unit bytes
statistic NetK.rte[23].queue[5] rxBytes:histogram
field count 115
field mean 1500
field stddev 0
field min 1500
field max 1500
field sum 172500
field sqrsum 258750000
attr interpolationmode none
attr title "received packet byte length, histogram"
attr unit bytes
bin	-inf	0
bin	1499	0
bin	1500	115
bin	1501	0
scalar NetK.rte[23].queue[5] txBytes:count 36
attr interpolationmode none
attr title "transmitting packet byte length, count"
attr unit bytes
scalar NetK.rte[23].queue[5] txBytes:sum 54000
attr interpolationmode none
attr title "transmitting packet byte length, sum"
attr unit bytes
statistic NetK.rte[23].queue[5] txBytes:histogram
field count 36
field mean 1500
field stddev 0
field min 1500
field max 1500
field sum 54000
field sqrsum 81000000
attr interpolationmode none
attr title "transmitting packet byte length, histogram"
attr unit bytes
bin	-inf	0
bin	1499	0
bin	1500	36
bin	1501	0
scalar NetK.rte[23].queue[5] busy:timeavg 0.000144
attr interpolationmode sample-hold
attr title "server busy state, timeavg"
scalar NetK.rte[23].queue[5] qlen:timeavg 0
attr interpolationmode sample-hold
attr title "queue length, timeavg"
scalar NetK.rte[23].queue[5] qlen:max 0
attr interpolationmode sample-hold
attr title "queue length, max"
scalar NetK.rte[23].queue[5] drop:count 0
attr interpolationmode none
attr title "dropped packet byte length, count"
attr unit bytes
scalar NetK.rte[23].queue[5] drop:sum 0
attr interpolationmode none
attr title "dropped packet byte length, sum"
attr unit bytes
scalar NetK.rte[24].app #sent 0
scalar NetK.rte[24].app #received 0
statistic NetK.rte[24].app "hop count"
field count 0
field mean nan
field stddev nan
field min nan
field max nan
field sum 0
field sqrsum 0
bin	-inf	0
bin	0	0
bin	1	0
scalar NetK.rte[24].app hopCount:mean nan
attr interpolationmode none
attr title "hop count of arrived packets, mean"
scalar NetK.rte[24].app hopCount:max nan
attr interpolationmode none
attr title "hop count of arrived packets, max"
scalar NetK.rte[24].app hopCount:count 0
attr interpolationmode none
attr title "hop count of arrived packets, count"
statistic NetK.rte[24].app hopCount:histogram
field count 0
field mean nan
field stddev nan
field min nan
field max nan
field sum 0
field sqrsum 0
attr interpolationmode none
attr title "hop count of arrived packets, histogram"
bin	-inf	0
bin	0	0
bin	1	0
scalar NetK.rte[24].app endToEndDelay:mean nan
attr interpolationmode none
attr title "end-to-end delay of arrived packets, mean"
attr unit s
scalar NetK.rte[24].app endToEndDelay:max nan
attr interpolationmode none
attr title "end-to-end delay of arrived packets, max"
attr unit s
scalar NetK.rte[24].app endToEndDelay:count 0
attr interpolationmode none
attr title "end-to-end delay of arrived packets, count"
attr unit s
statistic NetK.rte[24].routing TopoLinkCounter:histogram
field count 0
field mean nan
field stddev nan
field min nan
field max nan
field sum 0
field sqrsum 0
attr interpolationmode none
attr title "Number of links enabled in Topology, histogram"
bin	-inf	0
bin	0	0
bin	1	0
scalar NetK.rte[24].routing TopoLinkCounter:mean nan
attr interpolationmode none
attr title "Number of links enabled in Topology, mean"
scalar NetK.rte[24].routing TopoLinkCounter:max nan
attr interpolationmode none
attr title "Number of links enabled in Topology, max"
scalar NetK.rte[24].routing TopoLinkCounter:count 0
attr interpolationmode none
attr title "Number of links enabled in Topology, count"
statistic NetK.rte[24].routing outputIf:histogram
field count 0
field mean nan
field stddev nan
field min nan
field max nan
field sum 0
field sqrsum 0
attr interpolationmode none
attr title "output interface for each routed packet, histogram"
bin	-inf	0
bin	0	0
bin	1	0
scalar NetK.rte[24].routing drop:count 0
attr interpolationmode none
attr title "dropped packet byte length, count"
attr unit bytes
scalar NetK.rte[24].routing drop:sum 0
attr interpolationmode none
attr title "dropped packet byte length, sum"
attr unit bytes
statistic NetK.rte[24].routing hopCount:histogram
field count 0
field mean nan
field stddev nan
field min nan
field max nan
field sum 0
field sqrsum 0
attr interpolationmode none
attr title "count number of hops for packet, histogram"
bin	-inf	0
bin	0	0
bin	1	0
scalar NetK.rte[24].routing hopCount:mean nan
attr interpolationmode none
attr title "count number of hops for packet, mean"
scalar NetK.rte[24].routing hopCount:max nan
attr interpolationmode none
attr title "count number of hops for packet, max"
scalar NetK.rte[24].routing hopCount:count 0
attr interpolationmode none
attr title "count number of hops for packet, count"
statistic NetK.rte[24].queue[0] "drop count"
field count 0
field mean nan
field stddev nan
field min nan
field max nan
field sum 0
field sqrsum 0
bin	-inf	0
bin	0	0
bin	1	0
scalar NetK.rte[24].queue[0] rxBytes:count 98
attr interpolationmode none
attr title "received packet byte length, count"
attr unit bytes
scalar NetK.rte[24].queue[0] rxBytes:sum 147000
attr interpolationmode none
attr title "received packet byte length, sum"
attr unit bytes
statistic NetK.rte[24].queue[0] rxBytes:histogram
field count 98
field mean 1500
field stddev 0
field min 1500
field max 1500
field sum 147000
field sqrsum 220500000
attr interpolationmode none
attr title "received packet byte length, histogram"
attr unit bytes
bin	-inf	0
bin	1499	0
bin	1500	98
bin	1501	0
scalar NetK.rte[24].queue[0] txBytes:count 94
attr interpolationmode none
attr title "transmitting packet byte length, count"
attr unit bytes
scalar NetK.rte[24].queue[0] txBytes:sum 141000
attr interpolationmode none
attr title "transmitting packet byte length, sum"
attr unit bytes
statistic NetK.rte[24].queue[0] txBytes:histogram
field count 94
field mean 1500
field stddev 0
field min 1500
field max 1500
field sum 141000
field sqrsum 211500000
attr interpolationmode none
attr title "transmitting packet byte length, histogram"
attr unit bytes
bin	-inf	0
bin	1499	0
bin	1500	94
bin	1501	0
scalar NetK.rte[24].queue[0] busy:timeavg 0.000376
attr interpolationmode sample-hold
attr title "server busy state, timeavg"
scalar NetK.rte[24].queue[0] qlen:timeavg 0
attr interpolationmode sample-hold
attr title "queue length, timeavg"
scalar NetK.rte[24].queue[0] qlen:max 0
attr interpolationmode sample-hold
attr title "queue length, max"
scalar NetK.rte[24].queue[0] drop:count 0
attr interpolationmode none
attr title "dropped packet byte length, count"
attr unit bytes
scalar NetK.rte[24].queue[0] drop:sum 0
attr interpolationmode none
attr title "dropped packet byte length, sum"
attr unit bytes
statistic NetK.rte[24].queue[1] "drop count"
field count 0
field mean nan
field stddev nan
field min nan
field max nan
field sum 0
field sqrsum 0
bin	-inf	0
bin	0	0
bin	1	0
scalar NetK.rte[24].queue[1] rxBytes:count 107
attr interpolationmode none
attr title "received packet byte length, count"
attr unit bytes
scalar NetK.rte[24].queue[1] rxBytes:sum 160500
attr interpolationmode none
attr title "received packet byte length, sum"
attr unit bytes
statistic NetK.rte[24].queue[1] rxBytes:histogram
field count 107
field mean 1500
field stddev 0
field min 1500
field max 1500
field sum 160500
field sqrsum 240750000
attr interpolationmode none
attr title "received packet byte length, histogram"
attr unit bytes
bin	-inf	0
bin	1499	0
bin	1500	107
bin	1501	0
scalar NetK.rte[24].queue[1] txBytes:count 65
attr interpolationmode none
attr title "transmitting packet byte length, count"
attr unit bytes
scalar NetK.rte[24].queue[1] txBytes:sum 97500
attr interpolationmode none
attr title "transmitting packet byte length, sum"
attr unit bytes
statistic NetK.rte[24].queue[1] txBytes:histogram
field count 65
field mean 1500
field stddev 0
field min 1500
field max 1500
field sum 97500
field sqrsum 146250000
attr interpolationmode none
attr title "transmitting packet byte length, histogram"
attr unit bytes
bin	-inf	0
bin	1499	0
bin	1500	65
bin	1501	0
scalar NetK.rte[24].queue[1] busy:timeavg 0.00026
attr interpolationmode sample-hold
attr title "server busy state, timeavg"
scalar NetK.rte[24].queue[1] qlen:timeavg 0
attr interpolationmode sample-hold
attr title "queue length, timeavg"
scalar NetK.rte[24].queue[1] qlen:max 0
attr interpolationmode sample-hold
attr title "queue length, max"
scalar NetK.rte[24].queue[1] drop:count 0
attr interpolationmode none
attr title "dropped packet byte length, count"
attr unit bytes
scalar NetK.rte[24].queue[1] drop:sum 0
attr interpolationmode none
attr title "dropped packet byte length, sum"
attr unit bytes
statistic NetK.rte[24].queue[2] "drop count"
field count 0
field mean nan
field stddev nan
field min nan
field max nan
field sum 0
field sqrsum 0
bin	-inf	0
bin	0	0
bin	1	0
scalar NetK.rte[24].queue[2] rxBytes:count 31
attr interpolationmode none
attr title "received packet byte length, count"
attr unit bytes
scalar NetK.rte[24].queue[2] rxBytes:sum 46500
attr interpolationmode none
attr title "received packet byte length, sum"
attr unit bytes
statistic NetK.rte[24].queue[2] rxBytes:histogram
field count 31
field mean 1500
field stddev 0
field min 1500
field max 1500
field sum 46500
field sqrsum 69750000
attr interpolationmode none
attr title "received packet byte length, histogram"
attr unit bytes
bin	-inf	0
bin	1499	0
bin	1500	31
bin	1501	0
scalar NetK.rte[24].queue[2] txBytes:count 93
attr interpolationmode none
attr title "transmitting packet byte length, count"
attr unit bytes
scalar NetK.rte[24].queue[2] txBytes:sum 139500
attr interpolationmode none
attr title "transmitting packet byte length, sum"
attr unit bytes
statistic NetK.rte[24].queue[2] txBytes:histogram
field count 93
field mean 1500
field stddev 0
field min 1500
field max 1500
field sum 139500
field sqrsum 209250000
attr interpolationmode none
attr title "transmitting packet byte length, histogram"
attr unit bytes
bin	-inf	0
bin	1499	0
bin	1500	93
bin	1501	0
scalar NetK.rte[24].queue[2] busy:timeavg 0.000368
attr interpolationmode sample-hold
attr title "server busy state, timeavg"
scalar NetK.rte[24].queue[2] qlen:timeavg 0
attr interpolationmode sample-hold
attr title "queue length, timeavg"
scalar NetK.rte[24].queue[2] qlen:max 0
attr interpolationmode sample-hold
attr title "queue length, max"
scalar NetK.rte[24].queue[2] drop:count 0
attr interpolationmode none
attr title "dropped packet byte length, count"
attr unit bytes
scalar NetK.rte[24].queue[2] drop:sum 0
attr interpolationmode none
attr title "dropped packet byte length, sum"
attr unit bytes
statistic NetK.rte[24].queue[3] "drop count"
field count 0
field mean nan
field stddev nan
field min nan
field max nan
field sum 0
field sqrsum 0
bin	-inf	0
bin	0	0
bin	1	0
scalar NetK.rte[24].queue[3] rxBytes:count 83
attr interpolationmode none
attr title "received packet byte length, count"
attr unit bytes
scalar NetK.rte[24].queue[3] rxBytes:sum 124500
attr interpolationmode none
attr title "received packet byte length, sum"
attr unit bytes
statistic NetK.rte[24].queue[3] rxBytes:histogram
field count 83
field mean 1500
field stddev 0
field min 1500
field max 1500
field sum 124500
field sqrsum 186750000
attr interpolationmode none
attr title "received packet byte length, histogram"
attr unit bytes
bin	-inf	0
bin	1499	0
bin	1500	83
bin	1501	0
scalar NetK.rte[24].queue[3] txBytes:count 55
attr interpolationmode none
attr title "transmitting packet byte length, count"
attr unit bytes
scalar NetK.rte[24].queue[3] txBytes:sum 82500
attr interpolationmode none
attr title "transmitting packet byte length, sum"
attr unit bytes
statistic NetK.rte[24].queue[3] txBytes:histogram
field count 55
field mean 1500
field stddev 0
field min 1500
field max 1500
field sum 82500
field sqrsum 123750000
attr interpolationmode none
attr title "transmitting packet byte length, histogram"
attr unit bytes
bin	-inf	0
bin	1499	0
bin	1500	55
bin	1501	0
scalar NetK.rte[24].queue[3] busy:timeavg 0.00022
attr interpolationmode sample-hold
attr title "server busy state, timeavg"
scalar NetK.rte[24].queue[3] qlen:timeavg 0
attr interpolationmode sample-hold
attr title "queue length, timeavg"
scalar NetK.rte[24].queue[3] qlen:max 0
attr interpolationmode sample-hold
attr title "queue length, max"
scalar NetK.rte[24].queue[3] drop:count 0
attr interpolationmode none
attr title "dropped packet byte length, count"
attr unit bytes
scalar NetK.rte[24].queue[3] drop:sum 0
attr interpolationmode none
attr title "dropped packet byte length, sum"
attr unit bytes
statistic NetK.rte[24].queue[4] "drop count"
field count 0
field mean nan
field stddev nan
field min nan
field max nan
field sum 0
field sqrsum 0
bin	-inf	0
bin	0	0
bin	1	0
scalar NetK.rte[24].queue[4] rxBytes:count 109
attr interpolationmode none
attr title "received packet byte length, count"
attr unit bytes
scalar NetK.rte[24].queue[4] rxBytes:sum 163500
attr interpolationmode none
attr title "received packet byte length, sum"
attr unit bytes
statistic NetK.rte[24].queue[4] rxBytes:histogram
field count 109
field mean 1500
field stddev 0
field min 1500
field max 1500
field sum 163500
field sqrsum 245250000
attr interpolationmode none
attr title "received packet byte length, histogram"
attr unit bytes
bin	-inf	0
bin	1499	0
bin	1500	109
bin	1501	0
scalar NetK.rte[24].queue[4] txBytes:count 56
attr interpolationmode none
attr title "transmitting packet byte length, count"
attr unit bytes
scalar NetK.rte[24].queue[4] txBytes:sum 84000
attr interpolationmode none
attr title "transmitting packet byte length, sum"
attr unit bytes
statistic NetK.rte[24].queue[4] txBytes:histogram
field count 56
field mean 1500
field stddev 0
field min 1500
field max 1500
field sum 84000
field sqrsum 126000000
attr interpolationmode none
attr title "transmitting packet byte length, histogram"
attr unit bytes
bin	-inf	0
bin	1499	0
bin	1500	56
bin	1501	0
scalar NetK.rte[24].queue[4] busy:timeavg 0.00022
attr interpolationmode sample-hold
attr title "server busy state, timeavg"
scalar NetK.rte[24].queue[4] qlen:timeavg 0
attr interpolationmode sample-hold
attr title "queue length, timeavg"
scalar NetK.rte[24].queue[4] qlen:max 0
attr interpolationmode sample-hold
attr title "queue length, max"
scalar NetK.rte[24].queue[4] drop:count 0
attr interpolationmode none
attr title "dropped packet byte length, count"
attr unit bytes
scalar NetK.rte[24].queue[4] drop:sum 0
attr interpolationmode none
attr title "dropped packet byte length, sum"
attr unit bytes
statistic NetK.rte[24].queue[5] "drop count"
field count 0
field mean nan
field stddev nan
field min nan
field max nan
field sum 0
field sqrsum 0
bin	-inf	0
bin	0	0
bin	1	0
scalar NetK.rte[24].queue[5] rxBytes:count 28
attr interpolationmode none
attr title "received packet byte length, count"
attr unit bytes
scalar NetK.rte[24].queue[5] rxBytes:sum 42000
attr interpolationmode none
attr title "received packet byte length, sum"
attr unit bytes
statistic NetK.rte[24].queue[5] rxBytes:histogram
field count 28
field mean 1500
field stddev 0
field min 1500
field max 1500
field sum 42000
field sqrsum 63000000
attr interpolationmode none
attr title "received packet byte length, histogram"
attr unit bytes
bin	-inf	0
bin	1499	0
bin	1500	28
bin	1501	0
scalar NetK.rte[24].queue[5] txBytes:count 67
attr interpolationmode none
attr title "transmitting packet byte length, count"
attr unit bytes
scalar NetK.rte[24].queue[5] txBytes:sum 100500
attr interpolationmode none
attr title "transmitting packet byte length, sum"
attr unit bytes
statistic NetK.rte[24].queue[5] txBytes:histogram
field count 67
field mean 1500
field stddev 0
field min 1500
field max 1500
field sum 100500
field sqrsum 150750000
attr interpolationmode none
attr title "transmitting packet byte length, histogram"
attr unit bytes
bin	-inf	0
bin	1499	0
bin	1500	67
bin	1501	0
scalar NetK.rte[24].queue[5] busy:timeavg 0.000264
attr interpolationmode sample-hold
attr title "server busy state, timeavg"
scalar NetK.rte[24].queue[5] qlen:timeavg 0
attr interpolationmode sample-hold
attr title "queue length, timeavg"
scalar NetK.rte[24].queue[5] qlen:max 0
attr interpolationmode sample-hold
attr title "queue length, max"
scalar NetK.rte[24].queue[5] drop:count 0
attr interpolationmode none
attr title "dropped packet byte length, count"
attr unit bytes
scalar NetK.rte[24].queue[5] drop:sum 0
attr interpolationmode none
attr title "dropped packet byte length, sum"
attr unit bytes
scalar NetK.terminal[0].app numSent 600999
scalar NetK.terminal[0].app numReceived 0
scalar NetK.terminal[0].app endToEndDelay:mean nan
attr interpolationmode none
attr title "end-to-end delay of arrived packets, mean"
attr unit s
scalar NetK.terminal[0].app endToEndDelay:max nan
attr interpolationmode none
attr title "end-to-end delay of arrived packets, max"
attr unit s
scalar NetK.terminal[0].app endToEndDelay:count 0
attr interpolationmode none
attr title "end-to-end delay of arrived packets, count"
attr unit s
scalar NetK.terminal[1].app numSent 599976
scalar NetK.terminal[1].app numReceived 0
scalar NetK.terminal[1].app endToEndDelay:mean nan
attr interpolationmode none
attr title "end-to-end delay of arrived packets, mean"
attr unit s
scalar NetK.terminal[1].app endToEndDelay:max nan
attr interpolationmode none
attr title "end-to-end delay of arrived packets, max"
attr unit s
scalar NetK.terminal[1].app endToEndDelay:count 0
attr interpolationmode none
attr title "end-to-end delay of arrived packets, count"
attr unit s

