version 2
run NetK-0-20200913-14:03:25-15216
attr configname NetK
attr datetime 20200913-14:03:25
attr experiment NetK
attr inifile omnetpp.ini
attr iterationvars "$seed=1, $alpha=5, $mVar=5, $LB=true, $LinkPre=true"
attr iterationvarsf seed=1,alpha=5,mVar=5,LB=true,LinkPre=true-
attr measurement "$seed=1, $alpha=5, $mVar=5, $LB=true, $LinkPre=true"
attr network networks.NetK
attr processid 15216
attr repetition 0
attr replication #0
attr resultdir results
attr runnumber 0
attr seedset 1
itervar LB true
itervar LinkPre true
itervar alpha 5
itervar mVar 5
itervar seed 1
param **.num_of_hosts 25
param **.num_of_terminals 2
param **.maxTerminalNumber 10
param *.rte[*].app.hasApp false
param *.terminal[*].radius 1500m
param *.terminal[*].frac 0.8
param **.maxX 10000m
param **.maxY 10000m
param **.minX 0m
param **.minY 0m
param *.rte[*].mobility.typename "\"TurtleMobility\""
param *.rte[*].mobilityType "\"TurtleMobility\""
param *.rte[0].mobility.turtleScript "xmldoc(\"mobility.xml\", \"movements//movement[@id='0']\")"
param *.rte[1].mobility.turtleScript "xmldoc(\"mobility.xml\", \"movements//movement[@id='1']\")"
param *.rte[2].mobility.turtleScript "xmldoc(\"mobility.xml\", \"movements//movement[@id='2']\")"
param *.rte[3].mobility.turtleScript "xmldoc(\"mobility.xml\", \"movements//movement[@id='3']\")"
param *.rte[4].mobility.turtleScript "xmldoc(\"mobility.xml\", \"movements//movement[@id='4']\")"
param *.rte[5].mobility.turtleScript "xmldoc(\"mobility.xml\", \"movements//movement[@id='5']\")"
param *.rte[6].mobility.turtleScript "xmldoc(\"mobility.xml\", \"movements//movement[@id='6']\")"
param *.rte[7].mobility.turtleScript "xmldoc(\"mobility.xml\", \"movements//movement[@id='7']\")"
param *.rte[8].mobility.turtleScript "xmldoc(\"mobility.xml\", \"movements//movement[@id='8']\")"
param *.rte[9].mobility.turtleScript "xmldoc(\"mobility.xml\", \"movements//movement[@id='9']\")"
param *.rte[10].mobility.turtleScript "xmldoc(\"mobility.xml\", \"movements//movement[@id='10']\")"
param *.rte[11].mobility.turtleScript "xmldoc(\"mobility.xml\", \"movements//movement[@id='11']\")"
param *.rte[12].mobility.turtleScript "xmldoc(\"mobility.xml\", \"movements//movement[@id='12']\")"
param *.rte[13].mobility.turtleScript "xmldoc(\"mobility.xml\", \"movements//movement[@id='13']\")"
param *.rte[14].mobility.turtleScript "xmldoc(\"mobility.xml\", \"movements//movement[@id='14']\")"
param *.rte[15].mobility.turtleScript "xmldoc(\"mobility.xml\", \"movements//movement[@id='15']\")"
param *.rte[16].mobility.turtleScript "xmldoc(\"mobility.xml\", \"movements//movement[@id='16']\")"
param *.rte[17].mobility.turtleScript "xmldoc(\"mobility.xml\", \"movements//movement[@id='17']\")"
param *.rte[18].mobility.turtleScript "xmldoc(\"mobility.xml\", \"movements//movement[@id='18']\")"
param *.rte[19].mobility.turtleScript "xmldoc(\"mobility.xml\", \"movements//movement[@id='19']\")"
param *.rte[20].mobility.turtleScript "xmldoc(\"mobility.xml\", \"movements//movement[@id='20']\")"
param *.rte[21].mobility.turtleScript "xmldoc(\"mobility.xml\", \"movements//movement[@id='21']\")"
param *.rte[22].mobility.turtleScript "xmldoc(\"mobility.xml\", \"movements//movement[@id='22']\")"
param *.rte[23].mobility.turtleScript "xmldoc(\"mobility.xml\", \"movements//movement[@id='23']\")"
param *.rte[24].mobility.turtleScript "xmldoc(\"mobility.xml\", \"movements//movement[@id='24']\")"
param *.terminal[*].mobility.typename "\"StationaryMobility\""
param *.terminal[*].mobilityType "\"StationaryMobility\""
param **.alpha 5
param **.m_var 5
param **.changeRate 25s
param **.terminal[*].app.packetLength "1500 bytes"
param **.terminal[*].app.sendIaTime exponential(150ms)
param **.terminal[*].app.burst_next_event exponential(25s)
param **.terminal[*].app.burst_next_interval exponential(40ms)
param **.terminal[*].app.burst_size "intuniform (80,320)"
param **.rte[*].frameCapacity 7000
param **.datarate 5Mbps
param **.load_balance_mode true
param **.load_balance_link_prediction true
param **.load_threshold 85
param **.rte[*].appType "\"App\""

vector 0 NetK.rte[0] coordX:vector ETV
attr interpolationmode linear
attr source xCoord(mobilityPos(mobilityStateChanged))
attr title "coord X, vector"
vector 1 NetK.rte[0] coordY:vector ETV
attr interpolationmode linear
attr source yCoord(mobilityPos(mobilityStateChanged))
attr title "coord Y, vector"
vector 2 NetK.rte[1] coordX:vector ETV
attr interpolationmode linear
attr source xCoord(mobilityPos(mobilityStateChanged))
attr title "coord X, vector"
vector 3 NetK.rte[1] coordY:vector ETV
attr interpolationmode linear
attr source yCoord(mobilityPos(mobilityStateChanged))
attr title "coord Y, vector"
vector 4 NetK.rte[2] coordX:vector ETV
attr interpolationmode linear
attr source xCoord(mobilityPos(mobilityStateChanged))
attr title "coord X, vector"
vector 5 NetK.rte[2] coordY:vector ETV
attr interpolationmode linear
attr source yCoord(mobilityPos(mobilityStateChanged))
attr title "coord Y, vector"
vector 6 NetK.rte[3] coordX:vector ETV
attr interpolationmode linear
attr source xCoord(mobilityPos(mobilityStateChanged))
attr title "coord X, vector"
vector 7 NetK.rte[3] coordY:vector ETV
attr interpolationmode linear
attr source yCoord(mobilityPos(mobilityStateChanged))
attr title "coord Y, vector"
vector 8 NetK.rte[4] coordX:vector ETV
attr interpolationmode linear
attr source xCoord(mobilityPos(mobilityStateChanged))
attr title "coord X, vector"
vector 9 NetK.rte[4] coordY:vector ETV
attr interpolationmode linear
attr source yCoord(mobilityPos(mobilityStateChanged))
attr title "coord Y, vector"
vector 10 NetK.rte[5] coordX:vector ETV
attr interpolationmode linear
attr source xCoord(mobilityPos(mobilityStateChanged))
attr title "coord X, vector"
vector 11 NetK.rte[5] coordY:vector ETV
attr interpolationmode linear
attr source yCoord(mobilityPos(mobilityStateChanged))
attr title "coord Y, vector"
vector 12 NetK.rte[6] coordX:vector ETV
attr interpolationmode linear
attr source xCoord(mobilityPos(mobilityStateChanged))
attr title "coord X, vector"
vector 13 NetK.rte[6] coordY:vector ETV
attr interpolationmode linear
attr source yCoord(mobilityPos(mobilityStateChanged))
attr title "coord Y, vector"
vector 14 NetK.rte[7] coordX:vector ETV
attr interpolationmode linear
attr source xCoord(mobilityPos(mobilityStateChanged))
attr title "coord X, vector"
vector 15 NetK.rte[7] coordY:vector ETV
attr interpolationmode linear
attr source yCoord(mobilityPos(mobilityStateChanged))
attr title "coord Y, vector"
vector 16 NetK.rte[8] coordX:vector ETV
attr interpolationmode linear
attr source xCoord(mobilityPos(mobilityStateChanged))
attr title "coord X, vector"
vector 17 NetK.rte[8] coordY:vector ETV
attr interpolationmode linear
attr source yCoord(mobilityPos(mobilityStateChanged))
attr title "coord Y, vector"
vector 18 NetK.rte[9] coordX:vector ETV
attr interpolationmode linear
attr source xCoord(mobilityPos(mobilityStateChanged))
attr title "coord X, vector"
vector 19 NetK.rte[9] coordY:vector ETV
attr interpolationmode linear
attr source yCoord(mobilityPos(mobilityStateChanged))
attr title "coord Y, vector"
vector 20 NetK.rte[10] coordX:vector ETV
attr interpolationmode linear
attr source xCoord(mobilityPos(mobilityStateChanged))
attr title "coord X, vector"
vector 21 NetK.rte[10] coordY:vector ETV
attr interpolationmode linear
attr source yCoord(mobilityPos(mobilityStateChanged))
attr title "coord Y, vector"
vector 22 NetK.rte[11] coordX:vector ETV
attr interpolationmode linear
attr source xCoord(mobilityPos(mobilityStateChanged))
attr title "coord X, vector"
vector 23 NetK.rte[11] coordY:vector ETV
attr interpolationmode linear
attr source yCoord(mobilityPos(mobilityStateChanged))
attr title "coord Y, vector"
vector 24 NetK.rte[12] coordX:vector ETV
attr interpolationmode linear
attr source xCoord(mobilityPos(mobilityStateChanged))
attr title "coord X, vector"
vector 25 NetK.rte[12] coordY:vector ETV
attr interpolationmode linear
attr source yCoord(mobilityPos(mobilityStateChanged))
attr title "coord Y, vector"
vector 26 NetK.rte[13] coordX:vector ETV
attr interpolationmode linear
attr source xCoord(mobilityPos(mobilityStateChanged))
attr title "coord X, vector"
vector 27 NetK.rte[13] coordY:vector ETV
attr interpolationmode linear
attr source yCoord(mobilityPos(mobilityStateChanged))
attr title "coord Y, vector"
vector 28 NetK.rte[14] coordX:vector ETV
attr interpolationmode linear
attr source xCoord(mobilityPos(mobilityStateChanged))
attr title "coord X, vector"
vector 29 NetK.rte[14] coordY:vector ETV
attr interpolationmode linear
attr source yCoord(mobilityPos(mobilityStateChanged))
attr title "coord Y, vector"
vector 30 NetK.rte[15] coordX:vector ETV
attr interpolationmode linear
attr source xCoord(mobilityPos(mobilityStateChanged))
attr title "coord X, vector"
vector 31 NetK.rte[15] coordY:vector ETV
attr interpolationmode linear
attr source yCoord(mobilityPos(mobilityStateChanged))
attr title "coord Y, vector"
vector 32 NetK.rte[16] coordX:vector ETV
attr interpolationmode linear
attr source xCoord(mobilityPos(mobilityStateChanged))
attr title "coord X, vector"
vector 33 NetK.rte[16] coordY:vector ETV
attr interpolationmode linear
attr source yCoord(mobilityPos(mobilityStateChanged))
attr title "coord Y, vector"
vector 34 NetK.rte[17] coordX:vector ETV
attr interpolationmode linear
attr source xCoord(mobilityPos(mobilityStateChanged))
attr title "coord X, vector"
vector 35 NetK.rte[17] coordY:vector ETV
attr interpolationmode linear
attr source yCoord(mobilityPos(mobilityStateChanged))
attr title "coord Y, vector"
vector 36 NetK.rte[18] coordX:vector ETV
attr interpolationmode linear
attr source xCoord(mobilityPos(mobilityStateChanged))
attr title "coord X, vector"
vector 37 NetK.rte[18] coordY:vector ETV
attr interpolationmode linear
attr source yCoord(mobilityPos(mobilityStateChanged))
attr title "coord Y, vector"
vector 38 NetK.rte[19] coordX:vector ETV
attr interpolationmode linear
attr source xCoord(mobilityPos(mobilityStateChanged))
attr title "coord X, vector"
vector 39 NetK.rte[19] coordY:vector ETV
attr interpolationmode linear
attr source yCoord(mobilityPos(mobilityStateChanged))
attr title "coord Y, vector"
vector 40 NetK.rte[20] coordX:vector ETV
attr interpolationmode linear
attr source xCoord(mobilityPos(mobilityStateChanged))
attr title "coord X, vector"
vector 41 NetK.rte[20] coordY:vector ETV
attr interpolationmode linear
attr source yCoord(mobilityPos(mobilityStateChanged))
attr title "coord Y, vector"
vector 42 NetK.rte[21] coordX:vector ETV
attr interpolationmode linear
attr source xCoord(mobilityPos(mobilityStateChanged))
attr title "coord X, vector"
vector 43 NetK.rte[21] coordY:vector ETV
attr interpolationmode linear
attr source yCoord(mobilityPos(mobilityStateChanged))
attr title "coord Y, vector"
vector 44 NetK.rte[22] coordX:vector ETV
attr interpolationmode linear
attr source xCoord(mobilityPos(mobilityStateChanged))
attr title "coord X, vector"
vector 45 NetK.rte[22] coordY:vector ETV
attr interpolationmode linear
attr source yCoord(mobilityPos(mobilityStateChanged))
attr title "coord Y, vector"
vector 46 NetK.rte[23] coordX:vector ETV
attr interpolationmode linear
attr source xCoord(mobilityPos(mobilityStateChanged))
attr title "coord X, vector"
vector 47 NetK.rte[23] coordY:vector ETV
attr interpolationmode linear
attr source yCoord(mobilityPos(mobilityStateChanged))
attr title "coord Y, vector"
vector 48 NetK.rte[24] coordX:vector ETV
attr interpolationmode linear
attr source xCoord(mobilityPos(mobilityStateChanged))
attr title "coord X, vector"
vector 49 NetK.rte[24] coordY:vector ETV
attr interpolationmode linear
attr source yCoord(mobilityPos(mobilityStateChanged))
attr title "coord Y, vector"
vector 50 NetK.terminal[0] coordX:vector ETV
attr interpolationmode linear
attr source xCoord(mobilityPos(mobilityStateChanged))
attr title "coord X, vector"
vector 51 NetK.terminal[0] coordY:vector ETV
attr interpolationmode linear
attr source yCoord(mobilityPos(mobilityStateChanged))
attr title "coord Y, vector"
vector 52 NetK.terminal[1] coordX:vector ETV
attr interpolationmode linear
attr source xCoord(mobilityPos(mobilityStateChanged))
attr title "coord X, vector"
vector 53 NetK.terminal[1] coordY:vector ETV
attr interpolationmode linear
attr source yCoord(mobilityPos(mobilityStateChanged))
attr title "coord Y, vector"
vector 54 NetK.rte[0].queue[2] Throughput ETV
vector 55 NetK.rte[0].queue[0] Throughput ETV
vector 56 NetK.rte[4].queue[0] Throughput ETV
vector 57 NetK.rte[1].queue[4] Throughput ETV
vector 58 NetK.rte[3].queue[1] Throughput ETV
vector 59 NetK.rte[3].queue[5] Throughput ETV
vector 60 NetK.rte[3].queue[2] Throughput ETV
vector 61 NetK.rte[3].queue[4] Throughput ETV
vector 62 NetK.rte[3].queue[3] Throughput ETV
vector 63 NetK.rte[7].queue[4] Throughput ETV
vector 64 NetK.rte[7].queue[0] Throughput ETV
vector 65 NetK.rte[7].queue[2] Throughput ETV
vector 66 NetK.rte[7].queue[1] Throughput ETV
vector 67 NetK.rte[7].queue[3] Throughput ETV
vector 68 NetK.rte[4].queue[2] Throughput ETV
vector 69 NetK.rte[22].queue[3] Throughput ETV
vector 70 NetK.rte[8].queue[1] Throughput ETV
vector 71 NetK.rte[1].queue[0] Throughput ETV
vector 72 NetK.rte[8].queue[0] Throughput ETV
vector 73 NetK.rte[6].queue[4] Throughput ETV
vector 74 NetK.rte[12].queue[1] Throughput ETV
vector 75 NetK.rte[2].queue[0] Throughput ETV
vector 76 NetK.rte[11].queue[0] Throughput ETV
vector 77 NetK.rte[11].queue[1] Throughput ETV
vector 78 NetK.rte[11].queue[2] Throughput ETV
vector 79 NetK.rte[11].queue[3] Throughput ETV
vector 80 NetK.rte[11].queue[4] Throughput ETV
vector 81 NetK.rte[11].queue[5] Throughput ETV
vector 82 NetK.rte[8].queue[0] Size ETV
vector 83 NetK.rte[8].queue[1] Size ETV
vector 84 NetK.rte[8].queue[2] Throughput ETV
vector 85 NetK.rte[8].queue[3] Throughput ETV
vector 86 NetK.rte[8].queue[4] Throughput ETV
vector 87 NetK.rte[8].queue[5] Throughput ETV
vector 88 NetK.rte[6].queue[0] Throughput ETV
vector 89 NetK.rte[6].queue[1] Throughput ETV
vector 90 NetK.rte[6].queue[2] Throughput ETV
vector 91 NetK.rte[6].queue[3] Throughput ETV
vector 92 NetK.rte[6].queue[4] Size ETV
vector 93 NetK.rte[6].queue[5] Throughput ETV
vector 94 NetK.rte[10].queue[0] Throughput ETV
vector 95 NetK.rte[12].queue[0] Throughput ETV
vector 96 NetK.rte[12].queue[1] Size ETV
vector 97 NetK.rte[12].queue[2] Throughput ETV
vector 98 NetK.rte[12].queue[3] Throughput ETV
vector 99 NetK.rte[12].queue[4] Throughput ETV
vector 100 NetK.rte[12].queue[5] Throughput ETV
vector 101 NetK.rte[16].queue[2] Throughput ETV
vector 102 NetK.rte[5].queue[0] Throughput ETV
vector 103 NetK.rte[17].queue[2] Throughput ETV
vector 104 NetK.rte[9].queue[0] Throughput ETV
vector 105 NetK.rte[9].queue[1] Throughput ETV
vector 106 NetK.rte[9].queue[2] Throughput ETV
vector 107 NetK.rte[9].queue[4] Throughput ETV
vector 108 NetK.rte[9].queue[5] Throughput ETV
vector 109 NetK.rte[13].queue[3] Throughput ETV
vector 110 NetK.rte[2].queue[0] Size ETV
vector 111 NetK.rte[2].queue[2] Throughput ETV
vector 112 NetK.rte[2].queue[3] Throughput ETV
vector 113 NetK.rte[2].queue[5] Throughput ETV
vector 114 NetK.rte[14].queue[2] Throughput ETV
vector 115 NetK.rte[1].queue[0] Size ETV
vector 116 NetK.rte[1].queue[1] Throughput ETV
vector 117 NetK.rte[1].queue[2] Throughput ETV
vector 118 NetK.rte[1].queue[3] Throughput ETV
vector 119 NetK.rte[1].queue[4] Size ETV
vector 120 NetK.rte[1].queue[5] Throughput ETV
vector 121 NetK.rte[5].queue[0] Size ETV
vector 122 NetK.rte[7].queue[0] Size ETV
vector 123 NetK.rte[7].queue[1] Size ETV
vector 124 NetK.rte[7].queue[2] Size ETV
vector 125 NetK.rte[7].queue[3] Size ETV
vector 126 NetK.rte[7].queue[4] Size ETV
vector 127 NetK.rte[11].queue[0] Size ETV
vector 128 NetK.rte[11].queue[1] Size ETV
vector 129 NetK.rte[11].queue[2] Size ETV
vector 130 NetK.rte[11].queue[3] Size ETV
vector 131 NetK.rte[11].queue[4] Size ETV
vector 132 NetK.rte[11].queue[5] Size ETV
vector 133 NetK.rte[12].queue[0] Size ETV
vector 134 NetK.rte[12].queue[2] Size ETV
vector 135 NetK.rte[12].queue[3] Size ETV
vector 136 NetK.rte[12].queue[4] Size ETV
vector 137 NetK.rte[12].queue[5] Size ETV
vector 138 NetK.rte[13].queue[3] Size ETV
vector 139 NetK.rte[17].queue[2] Size ETV
vector 140 NetK.rte[6].queue[0] Size ETV
vector 141 NetK.rte[6].queue[1] Size ETV
vector 142 NetK.rte[6].queue[2] Size ETV
vector 143 NetK.rte[6].queue[3] Size ETV
vector 144 NetK.rte[6].queue[5] Size ETV
vector 145 NetK.rte[18].queue[5] Throughput ETV
vector 146 NetK.rte[0].queue[0] Size ETV
vector 147 NetK.rte[0].queue[1] Throughput ETV
vector 148 NetK.rte[0].queue[2] Size ETV
vector 149 NetK.rte[18].queue[5] Size ETV
vector 150 NetK.rte[4].queue[0] Size ETV
vector 151 NetK.rte[4].queue[1] Throughput ETV
vector 152 NetK.rte[4].queue[2] Size ETV
vector 153 NetK.rte[4].queue[3] Throughput ETV
vector 154 NetK.rte[4].queue[4] Throughput ETV
vector 155 NetK.rte[4].queue[5] Throughput ETV
vector 156 NetK.rte[8].queue[2] Size ETV
vector 157 NetK.rte[8].queue[3] Size ETV
vector 158 NetK.rte[8].queue[4] Size ETV
vector 159 NetK.rte[8].queue[5] Size ETV
vector 160 NetK.rte[14].queue[2] Size ETV
vector 161 NetK.rte[3].queue[1] Size ETV
vector 162 NetK.rte[3].queue[2] Size ETV
vector 163 NetK.rte[3].queue[3] Size ETV
vector 164 NetK.rte[3].queue[4] Size ETV
vector 165 NetK.rte[3].queue[5] Size ETV
vector 166 NetK.rte[10].queue[0] Size ETV
vector 167 NetK.rte[22].queue[0] Throughput ETV
vector 168 NetK.rte[22].queue[1] Throughput ETV
vector 169 NetK.rte[22].queue[2] Throughput ETV
vector 170 NetK.rte[22].queue[3] Size ETV
vector 171 NetK.rte[22].queue[4] Throughput ETV
vector 172 NetK.rte[22].queue[5] Throughput ETV
vector 173 NetK.rte[21].queue[1] Throughput ETV
vector 174 NetK.rte[19].queue[2] Throughput ETV
vector 175 NetK.rte[23].queue[2] Throughput ETV
vector 176 NetK.rte[0].queue[1] Size ETV
vector 177 NetK.rte[1].queue[1] Size ETV
vector 178 NetK.rte[1].queue[2] Size ETV
vector 179 NetK.rte[1].queue[3] Size ETV
vector 180 NetK.rte[1].queue[5] Size ETV
vector 181 NetK.rte[16].queue[2] Size ETV
vector 182 NetK.rte[9].queue[0] Size ETV
vector 183 NetK.rte[9].queue[1] Size ETV
vector 184 NetK.rte[9].queue[2] Size ETV
vector 185 NetK.rte[9].queue[4] Size ETV
vector 186 NetK.rte[2].queue[2] Size ETV
vector 187 NetK.rte[2].queue[5] Size ETV
vector 188 NetK.rte[4].queue[3] Size ETV
vector 189 NetK.rte[4].queue[4] Size ETV
vector 190 NetK.rte[4].queue[5] Size ETV
vector 191 NetK.rte[22].queue[0] Size ETV
vector 192 NetK.rte[22].queue[1] Size ETV
vector 193 NetK.rte[22].queue[2] Size ETV
vector 194 NetK.rte[22].queue[4] Size ETV
vector 195 NetK.rte[22].queue[5] Size ETV
vector 196 NetK.rte[21].queue[1] Size ETV
vector 197 NetK.rte[19].queue[2] Size ETV
vector 198 NetK.rte[23].queue[2] Size ETV
vector 199 NetK.rte[17].queue[4] Throughput ETV
vector 200 NetK.rte[9].queue[5] Size ETV
vector 201 NetK.rte[2].queue[3] Size ETV
vector 202 NetK.rte[13].queue[1] Throughput ETV
vector 203 NetK.rte[21].queue[5] Throughput ETV
vector 204 NetK.rte[17].queue[4] Size ETV
vector 205 NetK.rte[23].queue[1] Throughput ETV
vector 206 NetK.rte[23].queue[4] Throughput ETV
vector 207 NetK.rte[23].queue[5] Throughput ETV
vector 208 NetK.rte[14].queue[1] Throughput ETV
vector 209 NetK.rte[5].queue[1] Throughput ETV
vector 210 NetK.rte[17].queue[0] Throughput ETV
vector 211 NetK.rte[13].queue[2] Throughput ETV
vector 212 NetK.rte[13].queue[4] Throughput ETV
vector 213 NetK.rte[14].queue[0] Throughput ETV
vector 214 NetK.rte[21].queue[5] Size ETV
vector 215 NetK.rte[14].queue[5] Throughput ETV
vector 216 NetK.rte[5].queue[4] Throughput ETV
vector 217 NetK.rte[23].queue[1] Size ETV
vector 218 NetK.rte[23].queue[4] Size ETV
vector 219 NetK.rte[23].queue[5] Size ETV
vector 220 NetK.rte[14].queue[1] Size ETV
vector 221 NetK.rte[5].queue[1] Size ETV
vector 222 NetK.rte[17].queue[0] Size ETV
vector 223 NetK.rte[14].queue[0] Size ETV
vector 224 NetK.rte[5].queue[4] Size ETV
vector 225 NetK.rte[13].queue[4] Size ETV
vector 226 NetK.rte[4].queue[1] Size ETV
vector 227 NetK.rte[14].queue[4] Throughput ETV
vector 228 NetK.rte[14].queue[4] Size ETV
vector 229 NetK.rte[17].queue[5] Throughput ETV
vector 230 NetK.rte[15].queue[1] Throughput ETV
vector 231 NetK.rte[17].queue[5] Size ETV
vector 232 NetK.rte[21].queue[3] Throughput ETV
vector 233 NetK.rte[15].queue[1] Size ETV
vector 234 NetK.rte[15].queue[2] Throughput ETV
vector 235 NetK.rte[21].queue[3] Size ETV
vector 236 NetK.rte[15].queue[2] Size ETV
vector 237 NetK.rte[15].queue[5] Throughput ETV
vector 238 NetK.rte[14].queue[5] Size ETV
vector 239 NetK.rte[15].queue[5] Size ETV
vector 240 NetK.rte[17].queue[3] Throughput ETV
vector 241 NetK.rte[13].queue[2] Size ETV
vector 242 NetK.rte[17].queue[3] Size ETV
vector 243 NetK.rte[13].queue[1] Size ETV
0	0	0	1000
0	0	0	1000
0	0	0	1000
0	112	0.000006239	1000
0	112	0.000007563	1000
0	112	0.000008127	1000
0	112	0.000008666	1000
0	112	0.000009217	1000
0	112	0.000009732	1000
0	112	0.000010259	1000
0	112	0.000010788	1000
0	112	0.000011296	1000
0	112	0.000011847	1000
0	112	0.000012395	1000
0	113	0.0000128	1000
0	334	0.000967192	1000
0	334	0.001099643	1000
0	334	0.001218269	1000
0	334	0.001335207	1000
0	334	0.001445979	1000
0	334	0.001560664	1000
0	334	0.001670693	1000
0	334	0.001782829	1000
0	334	0.001900277	1000
0	334	0.002017504	1000
0	334	0.002130949	1000
0	334	0.002238334	1000
0	334	0.002353805	1000
0	474	0.0024128	1000
0	579	0.002950876	1000
0	579	0.003085491	1000
0	579	0.003200687	1000
0	579	0.003313788	1000
0	579	0.00342156	1000
0	579	0.003536435	1000
0	579	0.003656475	1000
0	579	0.003763253	1000
0	579	0.00389036	1000
0	579	0.00400076	1000
0	579	0.004113449	1000
0	579	0.004221513	1000
0	579	0.004338374	1000
0	579	0.004451626	1000
0	579	0.004562221	1000
0	579	0.004684487	1000
0	579	0.00479346	1000
0	729	0.0048128	1000
0	739	0.005153052	1000
0	739	0.005292014	1000
0	739	0.005397733	1000
0	739	0.005496649	1000
0	739	0.005598969	1000
0	739	0.005704891	1000
0	739	0.005807486	1000
0	739	0.005903568	1000
0	739	0.006005426	1000
0	739	0.006107957	1000
0	739	0.006206107	1000
0	739	0.006309987	1000
0	739	0.006418122	1000
0	739	0.006521426	1000
0	739	0.006621545	1000
0	739	0.006720214	1000
0	739	0.006818602	1000
0	739	0.006919801	1000
0	739	0.007020937	1000
0	739	0.007120948	1000
0	915	0.009520146	1000
0	1042	0.011170582	1000
0	1042	0.01135869	1000
0	1042	0.011464485	1000
0	1042	0.011568669	1000
0	1042	0.011671001	1000
0	1042	0.011777726	1000
0	1042	0.011879825	1000
0	1042	0.011982742	1000
0	1182	0.013739757	1000
0	1182	0.01401818	1000
0	1182	0.014121848	1000
0	1182	0.014224542	1000
0	1182	0.014321573	1000
0	1299	0.015630225	1000
0	1299	0.015978563	1000
0	1299	0.016077658	1000
0	1299	0.016188621	1000
0	1299	0.016286472	1000
0	1299	0.016383826	1000
0	1299	0.016486486	1000
0	1299	0.016584112	1000
0	1299	0.016683608	1000
0	1299	0.016781847	1000
0	1432	0.018508124	1000
0	1432	0.018664105	1000
0	1432	0.018776024	1000
0	1432	0.018873211	1000
0	1432	0.018978894	1000
0	1432	0.019077497	1000
0	1432	0.019179413	1000
0	1522	0.020120917	1000
0	1522	0.020259133	1000
0	1522	0.020356415	1000
0	1522	0.020451085	1000
0	1522	0.020549905	1000
0	1522	0.020651652	1000
0	1522	0.020748578	1000
0	1522	0.020848154	1000
0	1522	0.020940302	1000
0	1522	0.021032604	1000
0	1522	0.02112672	1000
0	1522	0.021225565	1000
0	1522	0.021320497	1000
0	1522	0.021414579	1000
0	1522	0.021507963	1000
0	1592	0.021930742	1000
0	1592	0.022551735	1000
0	1592	0.022654089	1000
0	1592	0.022750429	1000
0	1592	0.022843281	1000
0	1592	0.022946041	1000
0	1592	0.02304713	1000
0	1592	0.023146486	1000
0	1592	0.023243484	1000
0	1592	0.023338557	1000
0	1592	0.023434397	1000
0	1592	0.023530799	1000
0	1592	0.023630597	1000
0	1592	0.023733481	1000
0	1592	0.023827058	1000
0	1592	0.023919082	1000
0	1664	0.02431888	1000
0	1664	0.024947668	1000
0	1664	0.025064887	1000
0	1664	0.025165261	1000
0	1664	0.025262034	1000
0	1664	0.02536869	1000
0	1664	0.025481142	1000
0	1664	0.025577846	1000
0	1664	0.025687131	1000
0	1664	0.025786082	1000
0	1664	0.025884931	1000
0	1664	0.025992446	1000
0	1664	0.026100164	1000
0	1664	0.026201895	1000
0	1664	0.026299285	1000
0	1721	0.026611024	1000
0	1721	0.027065978	1000
0	1721	0.027163423	1000
0	1721	0.027257126	1000
0	1721	0.02736867	1000
0	1721	0.027467005	1000
0	1721	0.027563829	1000
0	1721	0.027663396	1000
0	1721	0.027775427	1000
0	1721	0.027874502	1000
0	1721	0.027969787	1000
0	1721	0.028087168	1000
0	1721	0.028191387	1000
0	1721	0.028289994	1000
0	1721	0.028389139	1000
0	1721	0.028486085	1000
0	1721	0.028590473	1000
0	1721	0.028686594	1000
0	1721	0.028783235	1000
0	1760	0.028990818	1000
0	1760	0.029269663	1000
0	1760	0.029376689	1000
0	1760	0.029474029	1000
0	1760	0.029570736	1000
0	1760	0.029660565	1000
0	1760	0.029764509	1000
0	1760	0.02986419	1000
0	1760	0.029960156	1000
0	1760	0.030054287	1000
0	1760	0.030144427	1000
0	1760	0.030248271	1000
0	1760	0.030340102	1000
0	1760	0.03043367	1000
0	1760	0.030529334	1000
0	1760	0.030619362	1000
0	1760	0.030726052	1000
0	1760	0.030818232	1000
0	1760	0.03091309	1000
0	1760	0.031005376	1000
0	1760	0.031104887	1000
0	1811	0.031379091	1000
0	1811	0.031879521	1000
0	1811	0.031984069	1000
0	1811	0.032083915	1000
0	1811	0.032186108	1000
0	1811	0.032284559	1000
0	1811	0.032376118	1000
0	1811	0.032466897	1000
0	1811	0.032580321	1000
0	1811	0.032675439	1000
0	1811	0.032773773	1000
0	1811	0.032867524	1000
0	1811	0.032959823	1000
0	1811	0.033057841	1000
0	1811	0.033153384	1000
0	1811	0.033252927	1000
0	1811	0.03334372	1000
0	1811	0.033434501	1000
0	1811	0.033538575	1000
0	1845	0.033695634	1000
0	1845	0.033907738	1000
0	1845	0.03400809	1000
0	1845	0.034099682	1000
0	1845	0.034193954	1000
0	1845	0.034287716	1000
0	1845	0.034383326	1000
0	1845	0.034482042	1000
0	1845	0.034580255	1000
0	1845	0.034676156	1000
0	1845	0.034771444	1000
0	1845	0.034861204	1000
0	1845	0.034951551	1000
0	1845	0.035055202	1000
0	1845	0.035149966	1000
0	1845	0.03525361	1000
0	1845	0.035354348	1000
0	1845	0.035455365	1000
0	1845	0.035546252	1000
0	1845	0.035641558	1000
0	1845	0.035731412	1000
0	1845	0.035824586	1000
0	1845	0.035924398	1000
0	1873	0.036077148	1000
0	1873	0.03630654	1000
0	1873	0.036399355	1000
0	1873	0.036500848	1000
0	1873	0.036595528	1000
0	1873	0.036690615	1000
0	1873	0.036788779	1000
0	1873	0.036882718	1000
0	1873	0.036979678	1000
0	1873	0.037074248	1000
0	1873	0.037166487	1000
0	1873	0.037258046	1000
0	1873	0.03734898	1000
0	1873	0.037447891	1000
0	1873	0.037540287	1000
0	1873	0.037634899	1000
0	1873	0.037728724	1000
0	1873	0.037818442	1000
0	1873	0.037921062	1000
0	1873	0.038019122	1000
0	1873	0.038113854	1000
0	1873	0.038210721	1000
0	1873	0.038300611	1000
0	1873	0.03838942	1000
0	1897	0.038527145	1000
0	1897	0.038727878	1000
0	1897	0.038833381	1000
0	1897	0.038925019	1000
0	1897	0.039019695	1000
0	1897	0.039125483	1000
0	1897	0.039215177	1000
0	1897	0.039304939	1000
0	1897	0.039399466	1000
0	1897	0.039492481	1000
0	1897	0.039585901	1000
0	1897	0.039677728	1000
0	1897	0.039782931	1000
0	1897	0.039875153	1000
0	1897	0.039972471	1000
0	1897	0.04007071	1000
0	1897	0.040167537	1000
0	1897	0.040267514	1000
0	1897	0.040359303	1000
0	1897	0.040453155	1000
0	1897	0.040543891	1000
0	1897	0.040635132	1000
0	1897	0.0407319	1000
0	1919	0.040861255	1000
0	1919	0.041058344	1000
0	1919	0.041156082	1000
0	1919	0.041245453	1000
0	1919	0.041337995	1000
0	1919	0.041426953	1000
0	1919	0.04152085	1000
0	1919	0.041618721	1000
0	1919	0.041714963	1000
0	1919	0.04180482	1000
0	1919	0.041913262	1000
0	1919	0.042011348	1000
0	1919	0.042110888	1000
0	1919	0.04220748	1000
0	1919	0.04230281	1000
0	1919	0.042394485	1000
0	1919	0.042499548	1000
0	1919	0.042598564	1000
0	1919	0.042690913	1000
0	1919	0.042784878	1000
0	1919	0.042878482	1000
0	1919	0.042973258	1000
0	1919	0.04307265	1000
0	1919	0.043168711	1000
0	1935	0.043290903	1000
0	1935	0.043453135	1000
0	1935	0.04355821	1000
0	1935	0.043656369	1000
0	1935	0.043750011	1000
0	1935	0.043847228	1000
0	1935	0.0439376	1000
0	1935	0.044031402	1000
0	1935	0.044124972	1000
0	1935	0.044221539	1000
0	1935	0.044317096	1000
0	1935	0.044408763	1000
0	1935	0.044500612	1000
0	1935	0.044596839	1000
0	1935	0.04469083	1000
0	1935	0.044784004	1000
0	1935	0.044873743	1000
0	1935	0.044976997	1000
0	1935	0.045078375	1000
0	1935	0.045170426	1000
0	1935	0.045268245	1000
0	1935	0.045359713	1000
0	1935	0.045456907	1000
0	1935	0.045557212	1000
0	1949	0.045676828	1000
0	1949	0.045854733	1000
0	1949	0.045946256	1000
0	1949	0.046041454	1000
0	1949	0.046133705	1000
0	1949	0.046223507	1000
0	1949	0.046314445	1000
0	1949	0.046417791	1000
0	1949	0.046511352	1000
0	1949	0.04660308	1000
0	1949	0.046695882	1000
0	1949	0.046792491	1000
0	1949	0.046896196	1000
0	1949	0.046992715	1000
0	1949	0.047088998	1000
0	1949	0.04718089	1000
0	1949	0.047274002	1000
0	1949	0.047367838	1000
0	1949	0.047461148	1000
0	1949	0.047552178	1000
0	1949	0.047647485	1000
0	1949	0.047738391	1000
0	1949	0.047832257	1000
0	1949	0.047932217	1000
0	1962	0.048049191	1000
0	1962	0.048239298	1000
0	1962	0.048339034	1000
0	1962	0.048434662	1000
0	1962	0.04853135	1000
0	1962	0.048619583	1000
0	1962	0.048719403	1000
0	1962	0.048817833	1000
0	1962	0.0489088	1000
0	1962	0.049005689	1000
0	1962	0.049101239	1000
0	1962	0.049195328	1000
0	1962	0.049289845	1000
0	1962	0.049379752	1000
0	1962	0.049476274	1000
0	1962	0.049568528	1000
0	1962	0.049664298	1000
0	1962	0.049759782	1000
0	1962	0.049853781	1000
0	1962	0.049956972	1000
0	1962	0.050053671	1000
0	1962	0.050142066	1000
0	1962	0.050236475	1000
0	1962	0.050331459	1000
0	1976	0.050453369	1000
0	1976	0.050617676	1000
0	1976	0.050730023	1000
0	1976	0.050830343	1000
0	1976	0.050927993	1000
0	1976	0.051020423	1000
0	1976	0.051114692	1000
0	1976	0.051213628	1000
0	1976	0.051310234	1000
0	1976	0.051408312	1000
0	1976	0.05150334	1000
0	1976	0.051616627	1000
0	1976	0.051712258	1000
0	1976	0.051820448	1000
0	1976	0.051921009	1000
0	1976	0.052012698	1000
0	1976	0.052104617	1000
0	1976	0.052201415	1000
0	1976	0.052292531	1000
0	1976	0.052387218	1000
0	1976	0.052487144	1000
0	1976	0.052578956	1000
0	1976	0.052668409	1000
0	1976	0.052766349	1000
0	1978	0.0528128	1000
0	1981	0.089682878	1000
0	1981	0.089700027	1000
0	1981	0.089711893	1000
0	1981	0.089724176	1000
0	1981	0.08973731	1000
0	1981	0.089750266	1000
0	1981	0.089762228	1000
0	1981	0.08977387	1000
0	1981	0.089786864	1000
0	1981	0.089798733	1000
0	1981	0.089810265	1000
0	1981	0.089822678	1000
0	1981	0.089835921	1000
0	1981	0.089847952	1000
0	1981	0.089860771	1000
0	1981	0.089872426	1000
0	1981	0.089885984	1000
0	1981	0.08989865	1000
0	1981	0.089910741	1000
0	1981	0.089922472	1000
0	1981	0.089933815	1000
0	1981	0.089945787	1000
0	1981	0.089958051	1000
0	1981	0.089970072	1000
0	1981	0.089981526	1000
0	1981	0.089982595	1000
0	1983	0.1	1000
1	0	0	1000
1	0	0	1000
1	0	0	1000
1	112	0.000006239	1000.00031195
1	112	0.000007563	1000.00037815
1	112	0.000008127	1000.00040635
1	112	0.000008666	1000.0004333
1	112	0.000009217	1000.00046085
1	112	0.000009732	1000.0004866
1	112	0.000010259	1000.00051295
1	112	0.000010788	1000.0005394
1	112	0.000011296	1000.0005648
1	112	0.000011847	1000.00059235
1	112	0.000012395	1000.00061975
1	113	0.0000128	1000.00064
1	334	0.000967192	1000.0483596
1	334	0.001099643	1000.05498215
1	334	0.001218269	1000.06091345
1	334	0.001335207	1000.06676035
1	334	0.001445979	1000.07229895
1	334	0.001560664	1000.0780332
1	334	0.001670693	1000.08353465
1	334	0.001782829	1000.08914145
1	334	0.001900277	1000.09501385
1	334	0.002017504	1000.1008752
1	334	0.002130949	1000.10654745
1	334	0.002238334	1000.1119167
1	334	0.002353805	1000.11769025
1	474	0.0024128	1000.12064
1	579	0.002950876	1000.1475438
1	579	0.003085491	1000.15427455
1	579	0.003200687	1000.16003435
1	579	0.003313788	1000.1656894
1	579	0.00342156	1000.171078
1	579	0.003536435	1000.17682175
1	579	0.003656475	1000.18282375
1	579	0.003763253	1000.18816265
1	579	0.00389036	1000.194518
1	579	0.00400076	1000.200038
1	579	0.004113449	1000.20567245
1	579	0.004221513	1000.21107565
1	579	0.004338374	1000.2169187
1	579	0.004451626	1000.2225813
1	579	0.004562221	1000.22811105
1	579	0.004684487	1000.23422435
1	579	0.00479346	1000.239673
1	729	0.0048128	1000.24064
1	739	0.005153052	1000.2576526
1	739	0.005292014	1000.2646007
1	739	0.005397733	1000.26988665
1	739	0.005496649	1000.27483245
1	739	0.005598969	1000.27994845
1	739	0.005704891	1000.28524455
1	739	0.005807486	1000.2903743
1	739	0.005903568	1000.2951784
1	739	0.006005426	1000.3002713
1	739	0.006107957	1000.30539785
1	739	0.006206107	1000.31030535
1	739	0.006309987	1000.31549935
1	739	0.006418122	1000.3209061
1	739	0.006521426	1000.3260713
1	739	0.006621545	1000.33107725
1	739	0.006720214	1000.3360107
1	739	0.006818602	1000.3409301
1	739	0.006919801	1000.34599005
1	739	0.007020937	1000.35104685
1	739	0.007120948	1000.3560474
1	915	0.009520146	1000.4760073
1	1042	0.011170582	1000.5585291
1	1042	0.01135869	1000.5679345
1	1042	0.011464485	1000.57322425
1	1042	0.011568669	1000.57843345
1	1042	0.011671001	1000.58355005
1	1042	0.011777726	1000.5888863
1	1042	0.011879825	1000.59399125
1	1042	0.011982742	1000.5991371
1	1182	0.013739757	1000.68698785
1	1182	0.01401818	1000.700909
1	1182	0.014121848	1000.7060924
1	1182	0.014224542	1000.7112271
1	1182	0.014321573	1000.71607865
1	1299	0.015630225	1000.78151125
1	1299	0.015978563	1000.79892815
1	1299	0.016077658	1000.8038829
1	1299	0.016188621	1000.80943105
1	1299	0.016286472	1000.8143236
1	1299	0.016383826	1000.8191913
1	1299	0.016486486	1000.8243243
1	1299	0.016584112	1000.8292056
1	1299	0.016683608	1000.8341804
1	1299	0.016781847	1000.83909235
1	1432	0.018508124	1000.9254062
1	1432	0.018664105	1000.93320525
1	1432	0.018776024	1000.9388012
1	1432	0.018873211	1000.94366055
1	1432	0.018978894	1000.9489447
1	1432	0.019077497	1000.95387485
1	1432	0.019179413	1000.95897065
1	1522	0.020120917	1001.00604585
1	1522	0.020259133	1001.01295665
1	1522	0.020356415	1001.01782075
1	1522	0.020451085	1001.02255425
1	1522	0.020549905	1001.02749525
1	1522	0.020651652	1001.0325826
1	1522	0.020748578	1001.0374289
1	1522	0.020848154	1001.0424077
1	1522	0.020940302	1001.0470151
1	1522	0.021032604	1001.0516302
1	1522	0.02112672	1001.056336
1	1522	0.021225565	1001.06127825
1	1522	0.021320497	1001.06602485
1	1522	0.021414579	1001.07072895
1	1522	0.021507963	1001.07539815
1	1592	0.021930742	1001.0965371
1	1592	0.022551735	1001.12758675
1	1592	0.022654089	1001.13270445
1	1592	0.022750429	1001.13752145
1	1592	0.022843281	1001.14216405
1	1592	0.022946041	1001.14730205
1	1592	0.02304713	1001.1523565
1	1592	0.023146486	1001.1573243
1	1592	0.023243484	1001.1621742
1	1592	0.023338557	1001.16692785
1	1592	0.023434397	1001.17171985
1	1592	0.023530799	1001.17653995
1	1592	0.023630597	1001.18152985
1	1592	0.023733481	1001.18667405
1	1592	0.023827058	1001.1913529
1	1592	0.023919082	1001.1959541
1	1664	0.02431888	1001.215944
1	1664	0.024947668	1001.2473834
1	1664	0.025064887	1001.25324435
1	1664	0.025165261	1001.25826305
1	1664	0.025262034	1001.2631017
1	1664	0.02536869	1001.2684345
1	1664	0.025481142	1001.2740571
1	1664	0.025577846	1001.2788923
1	1664	0.025687131	1001.28435655
1	1664	0.025786082	1001.2893041
1	1664	0.025884931	1001.29424655
1	1664	0.025992446	1001.2996223
1	1664	0.026100164	1001.3050082
1	1664	0.026201895	1001.31009475
1	1664	0.026299285	1001.31496425
1	1721	0.026611024	1001.3305512
1	1721	0.027065978	1001.3532989
1	1721	0.027163423	1001.35817115
1	1721	0.027257126	1001.3628563
1	1721	0.02736867	1001.3684335
1	1721	0.027467005	1001.37335025
1	1721	0.027563829	1001.37819145
1	1721	0.027663396	1001.3831698
1	1721	0.027775427	1001.38877135
1	1721	0.027874502	1001.3937251
1	1721	0.027969787	1001.39848935
1	1721	0.028087168	1001.4043584
1	1721	0.028191387	1001.40956935
1	1721	0.028289994	1001.4144997
1	1721	0.028389139	1001.41945695
1	1721	0.028486085	1001.42430425
1	1721	0.028590473	1001.42952365
1	1721	0.028686594	1001.4343297
1	1721	0.028783235	1001.43916175
1	1760	0.028990818	1001.4495409
1	1760	0.029269663	1001.46348315
1	1760	0.029376689	1001.46883445
1	1760	0.029474029	1001.47370145
1	1760	0.029570736	1001.4785368
1	1760	0.029660565	1001.48302825
1	1760	0.029764509	1001.48822545
1	1760	0.02986419	1001.4932095
1	1760	0.029960156	1001.4980078
1	1760	0.030054287	1001.50271435
1	1760	0.030144427	1001.50722135
1	1760	0.030248271	1001.51241355
1	1760	0.030340102	1001.5170051
1	1760	0.03043367	1001.5216835
1	1760	0.030529334	1001.5264667
1	1760	0.030619362	1001.5309681
1	1760	0.030726052	1001.5363026
1	1760	0.030818232	1001.5409116
1	1760	0.03091309	1001.5456545
1	1760	0.031005376	1001.5502688
1	1760	0.031104887	1001.55524435
1	1811	0.031379091	1001.56895455
1	1811	0.031879521	1001.59397605
1	1811	0.031984069	1001.59920345
1	1811	0.032083915	1001.60419575
1	1811	0.032186108	1001.6093054
1	1811	0.032284559	1001.61422795
1	1811	0.032376118	1001.6188059
1	1811	0.032466897	1001.62334485
1	1811	0.032580321	1001.62901605
1	1811	0.032675439	1001.63377195
1	1811	0.032773773	1001.63868865
1	1811	0.032867524	1001.6433762
1	1811	0.032959823	1001.64799115
1	1811	0.033057841	1001.65289205
1	1811	0.033153384	1001.6576692
1	1811	0.033252927	1001.66264635
1	1811	0.03334372	1001.667186
1	1811	0.033434501	1001.67172505
1	1811	0.033538575	1001.67692875
1	1845	0.033695634	1001.6847817
1	1845	0.033907738	1001.6953869
1	1845	0.03400809	1001.7004045
1	1845	0.034099682	1001.7049841
1	1845	0.034193954	1001.7096977
1	1845	0.034287716	1001.7143858
1	1845	0.034383326	1001.7191663
1	1845	0.034482042	1001.7241021
1	1845	0.034580255	1001.72901275
1	1845	0.034676156	1001.7338078
1	1845	0.034771444	1001.7385722
1	1845	0.034861204	1001.7430602
1	1845	0.034951551	1001.74757755
1	1845	0.035055202	1001.7527601
1	1845	0.035149966	1001.7574983
1	1845	0.03525361	1001.7626805
1	1845	0.035354348	1001.7677174
1	1845	0.035455365	1001.77276825
1	1845	0.035546252	1001.7773126
1	1845	0.035641558	1001.7820779
1	1845	0.035731412	1001.7865706
1	1845	0.035824586	1001.7912293
1	1845	0.035924398	1001.7962199
1	1873	0.036077148	1001.8038574
1	1873	0.03630654	1001.815327
1	1873	0.036399355	1001.81996775
1	1873	0.036500848	1001.8250424
1	1873	0.036595528	1001.8297764
1	1873	0.036690615	1001.83453075
1	1873	0.036788779	1001.83943895
1	1873	0.036882718	1001.8441359
1	1873	0.036979678	1001.8489839
1	1873	0.037074248	1001.8537124
1	1873	0.037166487	1001.85832435
1	1873	0.037258046	1001.8629023
1	1873	0.03734898	1001.867449
1	1873	0.037447891	1001.87239455
1	1873	0.037540287	1001.87701435
1	1873	0.037634899	1001.88174495
1	1873	0.037728724	1001.8864362
1	1873	0.037818442	1001.8909221
1	1873	0.037921062	1001.8960531
1	1873	0.038019122	1001.9009561
1	1873	0.038113854	1001.9056927
1	1873	0.038210721	1001.91053605
1	1873	0.038300611	1001.91503055
1	1873	0.03838942	1001.919471
1	1897	0.038527145	1001.92635725
1	1897	0.038727878	1001.9363939
1	1897	0.038833381	1001.94166905
1	1897	0.038925019	1001.94625095
1	1897	0.039019695	1001.95098475
1	1897	0.039125483	1001.95627415
1	1897	0.039215177	1001.96075885
1	1897	0.039304939	1001.96524695
1	1897	0.039399466	1001.9699733
1	1897	0.039492481	1001.97462405
1	1897	0.039585901	1001.97929505
1	1897	0.039677728	1001.9838864
1	1897	0.039782931	1001.98914655
1	1897	0.039875153	1001.99375765
1	1897	0.039972471	1001.99862355
1	1897	0.04007071	1002.0035355
1	1897	0.040167537	1002.00837685
1	1897	0.040267514	1002.0133757
1	1897	0.040359303	1002.01796515
1	1897	0.040453155	1002.02265775
1	1897	0.040543891	1002.02719455
1	1897	0.040635132	1002.0317566
1	1897	0.0407319	1002.036595
1	1919	0.040861255	1002.04306275
1	1919	0.041058344	1002.0529172
1	1919	0.041156082	1002.0578041
1	1919	0.041245453	1002.06227265
1	1919	0.041337995	1002.06689975
1	1919	0.041426953	1002.07134765
1	1919	0.04152085	1002.0760425
1	1919	0.041618721	1002.08093605
1	1919	0.041714963	1002.08574815
1	1919	0.04180482	1002.090241
1	1919	0.041913262	1002.0956631
1	1919	0.042011348	1002.1005674
1	1919	0.042110888	1002.1055444
1	1919	0.04220748	1002.110374
1	1919	0.04230281	1002.1151405
1	1919	0.042394485	1002.11972425
1	1919	0.042499548	1002.1249774
1	1919	0.042598564	1002.1299282
1	1919	0.042690913	1002.13454565
1	1919	0.042784878	1002.1392439
1	1919	0.042878482	1002.1439241
1	1919	0.042973258	1002.1486629
1	1919	0.04307265	1002.1536325
1	1919	0.043168711	1002.15843555
1	1935	0.043290903	1002.16454515
1	1935	0.043453135	1002.17265675
1	1935	0.04355821	1002.1779105
1	1935	0.043656369	1002.18281845
1	1935	0.043750011	1002.18750055
1	1935	0.043847228	1002.1923614
1	1935	0.0439376	1002.19688
1	1935	0.044031402	1002.2015701
1	1935	0.044124972	1002.2062486
1	1935	0.044221539	1002.21107695
1	1935	0.044317096	1002.2158548
1	1935	0.044408763	1002.22043815
1	1935	0.044500612	1002.2250306
1	1935	0.044596839	1002.22984195
1	1935	0.04469083	1002.2345415
1	1935	0.044784004	1002.2392002
1	1935	0.044873743	1002.24368715
1	1935	0.044976997	1002.24884985
1	1935	0.045078375	1002.25391875
1	1935	0.045170426	1002.2585213
1	1935	0.045268245	1002.26341225
1	1935	0.045359713	1002.26798565
1	1935	0.045456907	1002.27284535
1	1935	0.045557212	1002.2778606
1	1949	0.045676828	1002.2838414
1	1949	0.045854733	1002.29273665
1	1949	0.045946256	1002.2973128
1	1949	0.046041454	1002.3020727
1	1949	0.046133705	1002.30668525
1	1949	0.046223507	1002.31117535
1	1949	0.046314445	1002.31572225
1	1949	0.046417791	1002.32088955
1	1949	0.046511352	1002.3255676
1	1949	0.04660308	1002.330154
1	1949	0.046695882	1002.3347941
1	1949	0.046792491	1002.33962455
1	1949	0.046896196	1002.3448098
1	1949	0.046992715	1002.34963575
1	1949	0.047088998	1002.3544499
1	1949	0.04718089	1002.3590445
1	1949	0.047274002	1002.3637001
1	1949	0.047367838	1002.3683919
1	1949	0.047461148	1002.3730574
1	1949	0.047552178	1002.3776089
1	1949	0.047647485	1002.38237425
1	1949	0.047738391	1002.38691955
1	1949	0.047832257	1002.39161285
1	1949	0.047932217	1002.39661085
1	1962	0.048049191	1002.40245955
1	1962	0.048239298	1002.4119649
1	1962	0.048339034	1002.4169517
1	1962	0.048434662	1002.4217331
1	1962	0.04853135	1002.4265675
1	1962	0.048619583	1002.43097915
1	1962	0.048719403	1002.43597015
1	1962	0.048817833	1002.44089165
1	1962	0.0489088	1002.44544
1	1962	0.049005689	1002.45028445
1	1962	0.049101239	1002.45506195
1	1962	0.049195328	1002.4597664
1	1962	0.049289845	1002.46449225
1	1962	0.049379752	1002.4689876
1	1962	0.049476274	1002.4738137
1	1962	0.049568528	1002.4784264
1	1962	0.049664298	1002.4832149
1	1962	0.049759782	1002.4879891
1	1962	0.049853781	1002.49268905
1	1962	0.049956972	1002.4978486
1	1962	0.050053671	1002.50268355
1	1962	0.050142066	1002.5071033
1	1962	0.050236475	1002.51182375
1	1962	0.050331459	1002.51657295
1	1976	0.050453369	1002.52266845
1	1976	0.050617676	1002.5308838
1	1976	0.050730023	1002.53650115
1	1976	0.050830343	1002.54151715
1	1976	0.050927993	1002.54639965
1	1976	0.051020423	1002.55102115
1	1976	0.051114692	1002.5557346
1	1976	0.051213628	1002.5606814
1	1976	0.051310234	1002.5655117
1	1976	0.051408312	1002.5704156
1	1976	0.05150334	1002.575167
1	1976	0.051616627	1002.58083135
1	1976	0.051712258	1002.5856129
1	1976	0.051820448	1002.5910224
1	1976	0.051921009	1002.59605045
1	1976	0.052012698	1002.6006349
1	1976	0.052104617	1002.60523085
1	1976	0.052201415	1002.61007075
1	1976	0.052292531	1002.61462655
1	1976	0.052387218	1002.6193609
1	1976	0.052487144	1002.6243572
1	1976	0.052578956	1002.6289478
1	1976	0.052668409	1002.63342045
1	1976	0.052766349	1002.63831745
1	1978	0.0528128	1002.64064
1	1981	0.089682878	1004.4841439
1	1981	0.089700027	1004.48500135
1	1981	0.089711893	1004.48559465
1	1981	0.089724176	1004.4862088
1	1981	0.08973731	1004.4868655
1	1981	0.089750266	1004.4875133
1	1981	0.089762228	1004.4881114
1	1981	0.08977387	1004.4886935
1	1981	0.089786864	1004.4893432
1	1981	0.089798733	1004.48993665
1	1981	0.089810265	1004.49051325
1	1981	0.089822678	1004.4911339
1	1981	0.089835921	1004.49179605
1	1981	0.089847952	1004.4923976
1	1981	0.089860771	1004.49303855
1	1981	0.089872426	1004.4936213
1	1981	0.089885984	1004.4942992
1	1981	0.08989865	1004.4949325
1	1981	0.089910741	1004.49553705
1	1981	0.089922472	1004.4961236
1	1981	0.089933815	1004.49669075
1	1981	0.089945787	1004.49728935
1	1981	0.089958051	1004.49790255
1	1981	0.089970072	1004.4985036
1	1981	0.089981526	1004.4990763
1	1981	0.089982595	1004.49912975
1	1983	0.1	1005
2	0	0	3000
2	0	0	3000
2	0	0	3000
2	112	0.000006239	3000
2	112	0.000007563	3000
2	112	0.000008127	3000
2	112	0.000008666	3000
2	112	0.000009217	3000
2	112	0.000009732	3000
2	112	0.000010259	3000
2	112	0.000010788	3000
2	112	0.000011296	3000
2	112	0.000011847	3000
2	112	0.000012395	3000
2	113	0.0000128	3000
2	334	0.000967192	3000
2	334	0.001099643	3000
2	334	0.001218269	3000
2	334	0.001335207	3000
2	334	0.001445979	3000
2	334	0.001560664	3000
2	334	0.001670693	3000
2	334	0.001782829	3000
2	334	0.001900277	3000
2	334	0.002017504	3000
2	334	0.002130949	3000
2	334	0.002238334	3000
2	334	0.002353805	3000
2	474	0.0024128	3000
2	579	0.002950876	3000
2	579	0.003085491	3000
2	579	0.003200687	3000
2	579	0.003313788	3000
2	579	0.00342156	3000
2	579	0.003536435	3000
2	579	0.003656475	3000
2	579	0.003763253	3000
2	579	0.00389036	3000
2	579	0.00400076	3000
2	579	0.004113449	3000
2	579	0.004221513	3000
2	579	0.004338374	3000
2	579	0.004451626	3000
2	579	0.004562221	3000
2	579	0.004684487	3000
2	579	0.00479346	3000
2	729	0.0048128	3000
2	739	0.005153052	3000
2	739	0.005292014	3000
2	739	0.005397733	3000
2	739	0.005496649	3000
2	739	0.005598969	3000
2	739	0.005704891	3000
2	739	0.005807486	3000
2	739	0.005903568	3000
2	739	0.006005426	3000
2	739	0.006107957	3000
2	739	0.006206107	3000
2	739	0.006309987	3000
2	739	0.006418122	3000
2	739	0.006521426	3000
2	739	0.006621545	3000
2	739	0.006720214	3000
2	739	0.006818602	3000
2	739	0.006919801	3000
2	739	0.007020937	3000
2	739	0.007120948	3000
2	915	0.009520146	3000
2	1042	0.011170582	3000
2	1042	0.01135869	3000
2	1042	0.011464485	3000
2	1042	0.011568669	3000
2	1042	0.011671001	3000
2	1042	0.011777726	3000
2	1042	0.011879825	3000
2	1042	0.011982742	3000
2	1182	0.013739757	3000
2	1182	0.01401818	3000
2	1182	0.014121848	3000
2	1182	0.014224542	3000
2	1182	0.014321573	3000
2	1299	0.015630225	3000
2	1299	0.015978563	3000
2	1299	0.016077658	3000
2	1299	0.016188621	3000
2	1299	0.016286472	3000
2	1299	0.016383826	3000
2	1299	0.016486486	3000
2	1299	0.016584112	3000
2	1299	0.016683608	3000
2	1299	0.016781847	3000
2	1432	0.018508124	3000
2	1432	0.018664105	3000
2	1432	0.018776024	3000
2	1432	0.018873211	3000
2	1432	0.018978894	3000
2	1432	0.019077497	3000
2	1432	0.019179413	3000
2	1522	0.020120917	3000
2	1522	0.020259133	3000
2	1522	0.020356415	3000
2	1522	0.020451085	3000
2	1522	0.020549905	3000
2	1522	0.020651652	3000
2	1522	0.020748578	3000
2	1522	0.020848154	3000
2	1522	0.020940302	3000
2	1522	0.021032604	3000
2	1522	0.02112672	3000
2	1522	0.021225565	3000
2	1522	0.021320497	3000
2	1522	0.021414579	3000
2	1522	0.021507963	3000
2	1592	0.021930742	3000
2	1592	0.022551735	3000
2	1592	0.022654089	3000
2	1592	0.022750429	3000
2	1592	0.022843281	3000
2	1592	0.022946041	3000
2	1592	0.02304713	3000
2	1592	0.023146486	3000
2	1592	0.023243484	3000
2	1592	0.023338557	3000
2	1592	0.023434397	3000
2	1592	0.023530799	3000
2	1592	0.023630597	3000
2	1592	0.023733481	3000
2	1592	0.023827058	3000
2	1592	0.023919082	3000
2	1664	0.02431888	3000
2	1664	0.024947668	3000
2	1664	0.025064887	3000
2	1664	0.025165261	3000
2	1664	0.025262034	3000
2	1664	0.02536869	3000
2	1664	0.025481142	3000
2	1664	0.025577846	3000
2	1664	0.025687131	3000
2	1664	0.025786082	3000
2	1664	0.025884931	3000
2	1664	0.025992446	3000
2	1664	0.026100164	3000
2	1664	0.026201895	3000
2	1664	0.026299285	3000
2	1721	0.026611024	3000
2	1721	0.027065978	3000
2	1721	0.027163423	3000
2	1721	0.027257126	3000
2	1721	0.02736867	3000
2	1721	0.027467005	3000
2	1721	0.027563829	3000
2	1721	0.027663396	3000
2	1721	0.027775427	3000
2	1721	0.027874502	3000
2	1721	0.027969787	3000
2	1721	0.028087168	3000
2	1721	0.028191387	3000
2	1721	0.028289994	3000
2	1721	0.028389139	3000
2	1721	0.028486085	3000
2	1721	0.028590473	3000
2	1721	0.028686594	3000
2	1721	0.028783235	3000
2	1760	0.028990818	3000
2	1760	0.029269663	3000
2	1760	0.029376689	3000
2	1760	0.029474029	3000
2	1760	0.029570736	3000
2	1760	0.029660565	3000
2	1760	0.029764509	3000
2	1760	0.02986419	3000
2	1760	0.029960156	3000
2	1760	0.030054287	3000
2	1760	0.030144427	3000
2	1760	0.030248271	3000
2	1760	0.030340102	3000
2	1760	0.03043367	3000
2	1760	0.030529334	3000
2	1760	0.030619362	3000
2	1760	0.030726052	3000
2	1760	0.030818232	3000
2	1760	0.03091309	3000
2	1760	0.031005376	3000
2	1760	0.031104887	3000
2	1811	0.031379091	3000
2	1811	0.031879521	3000
2	1811	0.031984069	3000
2	1811	0.032083915	3000
2	1811	0.032186108	3000
2	1811	0.032284559	3000
2	1811	0.032376118	3000
2	1811	0.032466897	3000
2	1811	0.032580321	3000
2	1811	0.032675439	3000
2	1811	0.032773773	3000
2	1811	0.032867524	3000
2	1811	0.032959823	3000
2	1811	0.033057841	3000
2	1811	0.033153384	3000
2	1811	0.033252927	3000
2	1811	0.03334372	3000
2	1811	0.033434501	3000
2	1811	0.033538575	3000
2	1845	0.033695634	3000
2	1845	0.033907738	3000
2	1845	0.03400809	3000
2	1845	0.034099682	3000
2	1845	0.034193954	3000
2	1845	0.034287716	3000
2	1845	0.034383326	3000
2	1845	0.034482042	3000
2	1845	0.034580255	3000
2	1845	0.034676156	3000
2	1845	0.034771444	3000
2	1845	0.034861204	3000
2	1845	0.034951551	3000
2	1845	0.035055202	3000
2	1845	0.035149966	3000
2	1845	0.03525361	3000
2	1845	0.035354348	3000
2	1845	0.035455365	3000
2	1845	0.035546252	3000
2	1845	0.035641558	3000
2	1845	0.035731412	3000
2	1845	0.035824586	3000
2	1845	0.035924398	3000
2	1873	0.036077148	3000
2	1873	0.03630654	3000
2	1873	0.036399355	3000
2	1873	0.036500848	3000
2	1873	0.036595528	3000
2	1873	0.036690615	3000
2	1873	0.036788779	3000
2	1873	0.036882718	3000
2	1873	0.036979678	3000
2	1873	0.037074248	3000
2	1873	0.037166487	3000
2	1873	0.037258046	3000
2	1873	0.03734898	3000
2	1873	0.037447891	3000
2	1873	0.037540287	3000
2	1873	0.037634899	3000
2	1873	0.037728724	3000
2	1873	0.037818442	3000
2	1873	0.037921062	3000
2	1873	0.038019122	3000
2	1873	0.038113854	3000
2	1873	0.038210721	3000
2	1873	0.038300611	3000
2	1873	0.03838942	3000
2	1897	0.038527145	3000
2	1897	0.038727878	3000
2	1897	0.038833381	3000
2	1897	0.038925019	3000
2	1897	0.039019695	3000
2	1897	0.039125483	3000
2	1897	0.039215177	3000
2	1897	0.039304939	3000
2	1897	0.039399466	3000
2	1897	0.039492481	3000
2	1897	0.039585901	3000
2	1897	0.039677728	3000
2	1897	0.039782931	3000
2	1897	0.039875153	3000
2	1897	0.039972471	3000
2	1897	0.04007071	3000
2	1897	0.040167537	3000
2	1897	0.040267514	3000
2	1897	0.040359303	3000
2	1897	0.040453155	3000
2	1897	0.040543891	3000
2	1897	0.040635132	3000
2	1897	0.0407319	3000
2	1919	0.040861255	3000
2	1919	0.041058344	3000
2	1919	0.041156082	3000
2	1919	0.041245453	3000
2	1919	0.041337995	3000
2	1919	0.041426953	3000
2	1919	0.04152085	3000
2	1919	0.041618721	3000
2	1919	0.041714963	3000
2	1919	0.04180482	3000
2	1919	0.041913262	3000
2	1919	0.042011348	3000
2	1919	0.042110888	3000
2	1919	0.04220748	3000
2	1919	0.04230281	3000
2	1919	0.042394485	3000
2	1919	0.042499548	3000
2	1919	0.042598564	3000
2	1919	0.042690913	3000
2	1919	0.042784878	3000
2	1919	0.042878482	3000
2	1919	0.042973258	3000
2	1919	0.04307265	3000
2	1919	0.043168711	3000
2	1935	0.043290903	3000
2	1935	0.043453135	3000
2	1935	0.04355821	3000
2	1935	0.043656369	3000
2	1935	0.043750011	3000
2	1935	0.043847228	3000
2	1935	0.0439376	3000
2	1935	0.044031402	3000
2	1935	0.044124972	3000
2	1935	0.044221539	3000
2	1935	0.044317096	3000
2	1935	0.044408763	3000
2	1935	0.044500612	3000
2	1935	0.044596839	3000
2	1935	0.04469083	3000
2	1935	0.044784004	3000
2	1935	0.044873743	3000
2	1935	0.044976997	3000
2	1935	0.045078375	3000
2	1935	0.045170426	3000
2	1935	0.045268245	3000
2	1935	0.045359713	3000
2	1935	0.045456907	3000
2	1935	0.045557212	3000
2	1949	0.045676828	3000
2	1949	0.045854733	3000
2	1949	0.045946256	3000
2	1949	0.046041454	3000
2	1949	0.046133705	3000
2	1949	0.046223507	3000
2	1949	0.046314445	3000
2	1949	0.046417791	3000
2	1949	0.046511352	3000
2	1949	0.04660308	3000
2	1949	0.046695882	3000
2	1949	0.046792491	3000
2	1949	0.046896196	3000
2	1949	0.046992715	3000
2	1949	0.047088998	3000
2	1949	0.04718089	3000
2	1949	0.047274002	3000
2	1949	0.047367838	3000
2	1949	0.047461148	3000
2	1949	0.047552178	3000
2	1949	0.047647485	3000
2	1949	0.047738391	3000
2	1949	0.047832257	3000
2	1949	0.047932217	3000
2	1962	0.048049191	3000
2	1962	0.048239298	3000
2	1962	0.048339034	3000
2	1962	0.048434662	3000
2	1962	0.04853135	3000
2	1962	0.048619583	3000
2	1962	0.048719403	3000
2	1962	0.048817833	3000
2	1962	0.0489088	3000
2	1962	0.049005689	3000
2	1962	0.049101239	3000
2	1962	0.049195328	3000
2	1962	0.049289845	3000
2	1962	0.049379752	3000
2	1962	0.049476274	3000
2	1962	0.049568528	3000
2	1962	0.049664298	3000
2	1962	0.049759782	3000
2	1962	0.049853781	3000
2	1962	0.049956972	3000
2	1962	0.050053671	3000
2	1962	0.050142066	3000
2	1962	0.050236475	3000
2	1962	0.050331459	3000
2	1976	0.050453369	3000
2	1976	0.050617676	3000
2	1976	0.050730023	3000
2	1976	0.050830343	3000
2	1976	0.050927993	3000
2	1976	0.051020423	3000
2	1976	0.051114692	3000
2	1976	0.051213628	3000
2	1976	0.051310234	3000
2	1976	0.051408312	3000
2	1976	0.05150334	3000
2	1976	0.051616627	3000
2	1976	0.051712258	3000
2	1976	0.051820448	3000
2	1976	0.051921009	3000
2	1976	0.052012698	3000
2	1976	0.052104617	3000
2	1976	0.052201415	3000
2	1976	0.052292531	3000
2	1976	0.052387218	3000
2	1976	0.052487144	3000
2	1976	0.052578956	3000
2	1976	0.052668409	3000
2	1976	0.052766349	3000
2	1978	0.0528128	3000
2	1981	0.089682878	3000
2	1981	0.089700027	3000
2	1981	0.089711893	3000
2	1981	0.089724176	3000
2	1981	0.08973731	3000
2	1981	0.089750266	3000
2	1981	0.089762228	3000
2	1981	0.08977387	3000
2	1981	0.089786864	3000
2	1981	0.089798733	3000
2	1981	0.089810265	3000
2	1981	0.089822678	3000
2	1981	0.089835921	3000
2	1981	0.089847952	3000
2	1981	0.089860771	3000
2	1981	0.089872426	3000
2	1981	0.089885984	3000
2	1981	0.08989865	3000
2	1981	0.089910741	3000
2	1981	0.089922472	3000
2	1981	0.089933815	3000
2	1981	0.089945787	3000
2	1981	0.089958051	3000
2	1981	0.089970072	3000
2	1981	0.089981526	3000
2	1981	0.089982595	3000
2	1983	0.1	3000
3	0	0	1000
3	0	0	1000
3	0	0	1000
3	112	0.000006239	1000.00031195
3	112	0.000007563	1000.00037815
3	112	0.000008127	1000.00040635
3	112	0.000008666	1000.0004333
3	112	0.000009217	1000.00046085
3	112	0.000009732	1000.0004866
3	112	0.000010259	1000.00051295
3	112	0.000010788	1000.0005394
3	112	0.000011296	1000.0005648
3	112	0.000011847	1000.00059235
3	112	0.000012395	1000.00061975
3	113	0.0000128	1000.00064
3	334	0.000967192	1000.0483596
3	334	0.001099643	1000.05498215
3	334	0.001218269	1000.06091345
3	334	0.001335207	1000.06676035
3	334	0.001445979	1000.07229895
3	334	0.001560664	1000.0780332
3	334	0.001670693	1000.08353465
3	334	0.001782829	1000.08914145
3	334	0.001900277	1000.09501385
3	334	0.002017504	1000.1008752
3	334	0.002130949	1000.10654745
3	334	0.002238334	1000.1119167
3	334	0.002353805	1000.11769025
3	474	0.0024128	1000.12064
3	579	0.002950876	1000.1475438
3	579	0.003085491	1000.15427455
3	579	0.003200687	1000.16003435
3	579	0.003313788	1000.1656894
3	579	0.00342156	1000.171078
3	579	0.003536435	1000.17682175
3	579	0.003656475	1000.18282375
3	579	0.003763253	1000.18816265
3	579	0.00389036	1000.194518
3	579	0.00400076	1000.200038
3	579	0.004113449	1000.20567245
3	579	0.004221513	1000.21107565
3	579	0.004338374	1000.2169187
3	579	0.004451626	1000.2225813
3	579	0.004562221	1000.22811105
3	579	0.004684487	1000.23422435
3	579	0.00479346	1000.239673
3	729	0.0048128	1000.24064
3	739	0.005153052	1000.2576526
3	739	0.005292014	1000.2646007
3	739	0.005397733	1000.26988665
3	739	0.005496649	1000.27483245
3	739	0.005598969	1000.27994845
3	739	0.005704891	1000.28524455
3	739	0.005807486	1000.2903743
3	739	0.005903568	1000.2951784
3	739	0.006005426	1000.3002713
3	739	0.006107957	1000.30539785
3	739	0.006206107	1000.31030535
3	739	0.006309987	1000.31549935
3	739	0.006418122	1000.3209061
3	739	0.006521426	1000.3260713
3	739	0.006621545	1000.33107725
3	739	0.006720214	1000.3360107
3	739	0.006818602	1000.3409301
3	739	0.006919801	1000.34599005
3	739	0.007020937	1000.35104685
3	739	0.007120948	1000.3560474
3	915	0.009520146	1000.4760073
3	1042	0.011170582	1000.5585291
3	1042	0.01135869	1000.5679345
3	1042	0.011464485	1000.57322425
3	1042	0.011568669	1000.57843345
3	1042	0.011671001	1000.58355005
3	1042	0.011777726	1000.5888863
3	1042	0.011879825	1000.59399125
3	1042	0.011982742	1000.5991371
3	1182	0.013739757	1000.68698785
3	1182	0.01401818	1000.700909
3	1182	0.014121848	1000.7060924
3	1182	0.014224542	1000.7112271
3	1182	0.014321573	1000.71607865
3	1299	0.015630225	1000.78151125
3	1299	0.015978563	1000.79892815
3	1299	0.016077658	1000.8038829
3	1299	0.016188621	1000.80943105
3	1299	0.016286472	1000.8143236
3	1299	0.016383826	1000.8191913
3	1299	0.016486486	1000.8243243
3	1299	0.016584112	1000.8292056
3	1299	0.016683608	1000.8341804
3	1299	0.016781847	1000.83909235
3	1432	0.018508124	1000.9254062
3	1432	0.018664105	1000.93320525
3	1432	0.018776024	1000.9388012
3	1432	0.018873211	1000.94366055
3	1432	0.018978894	1000.9489447
3	1432	0.019077497	1000.95387485
3	1432	0.019179413	1000.95897065
3	1522	0.020120917	1001.00604585
3	1522	0.020259133	1001.01295665
3	1522	0.020356415	1001.01782075
3	1522	0.020451085	1001.02255425
3	1522	0.020549905	1001.02749525
3	1522	0.020651652	1001.0325826
3	1522	0.020748578	1001.0374289
3	1522	0.020848154	1001.0424077
3	1522	0.020940302	1001.0470151
3	1522	0.021032604	1001.0516302
3	1522	0.02112672	1001.056336
3	1522	0.021225565	1001.06127825
3	1522	0.021320497	1001.06602485
3	1522	0.021414579	1001.07072895
3	1522	0.021507963	1001.07539815
3	1592	0.021930742	1001.0965371
3	1592	0.022551735	1001.12758675
3	1592	0.022654089	1001.13270445
3	1592	0.022750429	1001.13752145
3	1592	0.022843281	1001.14216405
3	1592	0.022946041	1001.14730205
3	1592	0.02304713	1001.1523565
3	1592	0.023146486	1001.1573243
3	1592	0.023243484	1001.1621742
3	1592	0.023338557	1001.16692785
3	1592	0.023434397	1001.17171985
3	1592	0.023530799	1001.17653995
3	1592	0.023630597	1001.18152985
3	1592	0.023733481	1001.18667405
3	1592	0.023827058	1001.1913529
3	1592	0.023919082	1001.1959541
3	1664	0.02431888	1001.215944
3	1664	0.024947668	1001.2473834
3	1664	0.025064887	1001.25324435
3	1664	0.025165261	1001.25826305
3	1664	0.025262034	1001.2631017
3	1664	0.02536869	1001.2684345
3	1664	0.025481142	1001.2740571
3	1664	0.025577846	1001.2788923
3	1664	0.025687131	1001.28435655
3	1664	0.025786082	1001.2893041
3	1664	0.025884931	1001.29424655
3	1664	0.025992446	1001.2996223
3	1664	0.026100164	1001.3050082
3	1664	0.026201895	1001.31009475
3	1664	0.026299285	1001.31496425
3	1721	0.026611024	1001.3305512
3	1721	0.027065978	1001.3532989
3	1721	0.027163423	1001.35817115
3	1721	0.027257126	1001.3628563
3	1721	0.02736867	1001.3684335
3	1721	0.027467005	1001.37335025
3	1721	0.027563829	1001.37819145
3	1721	0.027663396	1001.3831698
3	1721	0.027775427	1001.38877135
3	1721	0.027874502	1001.3937251
3	1721	0.027969787	1001.39848935
3	1721	0.028087168	1001.4043584
3	1721	0.028191387	1001.40956935
3	1721	0.028289994	1001.4144997
3	1721	0.028389139	1001.41945695
3	1721	0.028486085	1001.42430425
3	1721	0.028590473	1001.42952365
3	1721	0.028686594	1001.4343297
3	1721	0.028783235	1001.43916175
3	1760	0.028990818	1001.4495409
3	1760	0.029269663	1001.46348315
3	1760	0.029376689	1001.46883445
3	1760	0.029474029	1001.47370145
3	1760	0.029570736	1001.4785368
3	1760	0.029660565	1001.48302825
3	1760	0.029764509	1001.48822545
3	1760	0.02986419	1001.4932095
3	1760	0.029960156	1001.4980078
3	1760	0.030054287	1001.50271435
3	1760	0.030144427	1001.50722135
3	1760	0.030248271	1001.51241355
3	1760	0.030340102	1001.5170051
3	1760	0.03043367	1001.5216835
3	1760	0.030529334	1001.5264667
3	1760	0.030619362	1001.5309681
3	1760	0.030726052	1001.5363026
3	1760	0.030818232	1001.5409116
3	1760	0.03091309	1001.5456545
3	1760	0.031005376	1001.5502688
3	1760	0.031104887	1001.55524435
3	1811	0.031379091	1001.56895455
3	1811	0.031879521	1001.59397605
3	1811	0.031984069	1001.59920345
3	1811	0.032083915	1001.60419575
3	1811	0.032186108	1001.6093054
3	1811	0.032284559	1001.61422795
3	1811	0.032376118	1001.6188059
3	1811	0.032466897	1001.62334485
3	1811	0.032580321	1001.62901605
3	1811	0.032675439	1001.63377195
3	1811	0.032773773	1001.63868865
3	1811	0.032867524	1001.6433762
3	1811	0.032959823	1001.64799115
3	1811	0.033057841	1001.65289205
3	1811	0.033153384	1001.6576692
3	1811	0.033252927	1001.66264635
3	1811	0.03334372	1001.667186
3	1811	0.033434501	1001.67172505
3	1811	0.033538575	1001.67692875
3	1845	0.033695634	1001.6847817
3	1845	0.033907738	1001.6953869
3	1845	0.03400809	1001.7004045
3	1845	0.034099682	1001.7049841
3	1845	0.034193954	1001.7096977
3	1845	0.034287716	1001.7143858
3	1845	0.034383326	1001.7191663
3	1845	0.034482042	1001.7241021
3	1845	0.034580255	1001.72901275
3	1845	0.034676156	1001.7338078
3	1845	0.034771444	1001.7385722
3	1845	0.034861204	1001.7430602
3	1845	0.034951551	1001.74757755
3	1845	0.035055202	1001.7527601
3	1845	0.035149966	1001.7574983
3	1845	0.03525361	1001.7626805
3	1845	0.035354348	1001.7677174
3	1845	0.035455365	1001.77276825
3	1845	0.035546252	1001.7773126
3	1845	0.035641558	1001.7820779
3	1845	0.035731412	1001.7865706
3	1845	0.035824586	1001.7912293
3	1845	0.035924398	1001.7962199
3	1873	0.036077148	1001.8038574
3	1873	0.03630654	1001.815327
3	1873	0.036399355	1001.81996775
3	1873	0.036500848	1001.8250424
3	1873	0.036595528	1001.8297764
3	1873	0.036690615	1001.83453075
3	1873	0.036788779	1001.83943895
3	1873	0.036882718	1001.8441359
3	1873	0.036979678	1001.8489839
3	1873	0.037074248	1001.8537124
3	1873	0.037166487	1001.85832435
3	1873	0.037258046	1001.8629023
3	1873	0.03734898	1001.867449
3	1873	0.037447891	1001.87239455
3	1873	0.037540287	1001.87701435
3	1873	0.037634899	1001.88174495
3	1873	0.037728724	1001.8864362
3	1873	0.037818442	1001.8909221
3	1873	0.037921062	1001.8960531
3	1873	0.038019122	1001.9009561
3	1873	0.038113854	1001.9056927
3	1873	0.038210721	1001.91053605
3	1873	0.038300611	1001.91503055
3	1873	0.03838942	1001.919471
3	1897	0.038527145	1001.92635725
3	1897	0.038727878	1001.9363939
3	1897	0.038833381	1001.94166905
3	1897	0.038925019	1001.94625095
3	1897	0.039019695	1001.95098475
3	1897	0.039125483	1001.95627415
3	1897	0.039215177	1001.96075885
3	1897	0.039304939	1001.96524695
3	1897	0.039399466	1001.9699733
3	1897	0.039492481	1001.97462405
3	1897	0.039585901	1001.97929505
3	1897	0.039677728	1001.9838864
3	1897	0.039782931	1001.98914655
3	1897	0.039875153	1001.99375765
3	1897	0.039972471	1001.99862355
3	1897	0.04007071	1002.0035355
3	1897	0.040167537	1002.00837685
3	1897	0.040267514	1002.0133757
3	1897	0.040359303	1002.01796515
3	1897	0.040453155	1002.02265775
3	1897	0.040543891	1002.02719455
3	1897	0.040635132	1002.0317566
3	1897	0.0407319	1002.036595
3	1919	0.040861255	1002.04306275
3	1919	0.041058344	1002.0529172
3	1919	0.041156082	1002.0578041
3	1919	0.041245453	1002.06227265
3	1919	0.041337995	1002.06689975
3	1919	0.041426953	1002.07134765
3	1919	0.04152085	1002.0760425
3	1919	0.041618721	1002.08093605
3	1919	0.041714963	1002.08574815
3	1919	0.04180482	1002.090241
3	1919	0.041913262	1002.0956631
3	1919	0.042011348	1002.1005674
3	1919	0.042110888	1002.1055444
3	1919	0.04220748	1002.110374
3	1919	0.04230281	1002.1151405
3	1919	0.042394485	1002.11972425
3	1919	0.042499548	1002.1249774
3	1919	0.042598564	1002.1299282
3	1919	0.042690913	1002.13454565
3	1919	0.042784878	1002.1392439
3	1919	0.042878482	1002.1439241
3	1919	0.042973258	1002.1486629
3	1919	0.04307265	1002.1536325
3	1919	0.043168711	1002.15843555
3	1935	0.043290903	1002.16454515
3	1935	0.043453135	1002.17265675
3	1935	0.04355821	1002.1779105
3	1935	0.043656369	1002.18281845
3	1935	0.043750011	1002.18750055
3	1935	0.043847228	1002.1923614
3	1935	0.0439376	1002.19688
3	1935	0.044031402	1002.2015701
3	1935	0.044124972	1002.2062486
3	1935	0.044221539	1002.21107695
3	1935	0.044317096	1002.2158548
3	1935	0.044408763	1002.22043815
3	1935	0.044500612	1002.2250306
3	1935	0.044596839	1002.22984195
3	1935	0.04469083	1002.2345415
3	1935	0.044784004	1002.2392002
3	1935	0.044873743	1002.24368715
3	1935	0.044976997	1002.24884985
3	1935	0.045078375	1002.25391875
3	1935	0.045170426	1002.2585213
3	1935	0.045268245	1002.26341225
3	1935	0.045359713	1002.26798565
3	1935	0.045456907	1002.27284535
3	1935	0.045557212	1002.2778606
3	1949	0.045676828	1002.2838414
3	1949	0.045854733	1002.29273665
3	1949	0.045946256	1002.2973128
3	1949	0.046041454	1002.3020727
3	1949	0.046133705	1002.30668525
3	1949	0.046223507	1002.31117535
3	1949	0.046314445	1002.31572225
3	1949	0.046417791	1002.32088955
3	1949	0.046511352	1002.3255676
3	1949	0.04660308	1002.330154
3	1949	0.046695882	1002.3347941
3	1949	0.046792491	1002.33962455
3	1949	0.046896196	1002.3448098
3	1949	0.046992715	1002.34963575
3	1949	0.047088998	1002.3544499
3	1949	0.04718089	1002.3590445
3	1949	0.047274002	1002.3637001
3	1949	0.047367838	1002.3683919
3	1949	0.047461148	1002.3730574
3	1949	0.047552178	1002.3776089
3	1949	0.047647485	1002.38237425
3	1949	0.047738391	1002.38691955
3	1949	0.047832257	1002.39161285
3	1949	0.047932217	1002.39661085
3	1962	0.048049191	1002.40245955
3	1962	0.048239298	1002.4119649
3	1962	0.048339034	1002.4169517
3	1962	0.048434662	1002.4217331
3	1962	0.04853135	1002.4265675
3	1962	0.048619583	1002.43097915
3	1962	0.048719403	1002.43597015
3	1962	0.048817833	1002.44089165
3	1962	0.0489088	1002.44544
3	1962	0.049005689	1002.45028445
3	1962	0.049101239	1002.45506195
3	1962	0.049195328	1002.4597664
3	1962	0.049289845	1002.46449225
3	1962	0.049379752	1002.4689876
3	1962	0.049476274	1002.4738137
3	1962	0.049568528	1002.4784264
3	1962	0.049664298	1002.4832149
3	1962	0.049759782	1002.4879891
3	1962	0.049853781	1002.49268905
3	1962	0.049956972	1002.4978486
3	1962	0.050053671	1002.50268355
3	1962	0.050142066	1002.5071033
3	1962	0.050236475	1002.51182375
3	1962	0.050331459	1002.51657295
3	1976	0.050453369	1002.52266845
3	1976	0.050617676	1002.5308838
3	1976	0.050730023	1002.53650115
3	1976	0.050830343	1002.54151715
3	1976	0.050927993	1002.54639965
3	1976	0.051020423	1002.55102115
3	1976	0.051114692	1002.5557346
3	1976	0.051213628	1002.5606814
3	1976	0.051310234	1002.5655117
3	1976	0.051408312	1002.5704156
3	1976	0.05150334	1002.575167
3	1976	0.051616627	1002.58083135
3	1976	0.051712258	1002.5856129
3	1976	0.051820448	1002.5910224
3	1976	0.051921009	1002.59605045
3	1976	0.052012698	1002.6006349
3	1976	0.052104617	1002.60523085
3	1976	0.052201415	1002.61007075
3	1976	0.052292531	1002.61462655
3	1976	0.052387218	1002.6193609
3	1976	0.052487144	1002.6243572
3	1976	0.052578956	1002.6289478
3	1976	0.052668409	1002.63342045
3	1976	0.052766349	1002.63831745
3	1978	0.0528128	1002.64064
3	1981	0.089682878	1004.4841439
3	1981	0.089700027	1004.48500135
3	1981	0.089711893	1004.48559465
3	1981	0.089724176	1004.4862088
3	1981	0.08973731	1004.4868655
3	1981	0.089750266	1004.4875133
3	1981	0.089762228	1004.4881114
3	1981	0.08977387	1004.4886935
3	1981	0.089786864	1004.4893432
3	1981	0.089798733	1004.48993665
3	1981	0.089810265	1004.49051325
3	1981	0.089822678	1004.4911339
3	1981	0.089835921	1004.49179605
3	1981	0.089847952	1004.4923976
3	1981	0.089860771	1004.49303855
3	1981	0.089872426	1004.4936213
3	1981	0.089885984	1004.4942992
3	1981	0.08989865	1004.4949325
3	1981	0.089910741	1004.49553705
3	1981	0.089922472	1004.4961236
3	1981	0.089933815	1004.49669075
3	1981	0.089945787	1004.49728935
3	1981	0.089958051	1004.49790255
3	1981	0.089970072	1004.4985036
3	1981	0.089981526	1004.4990763
3	1981	0.089982595	1004.49912975
3	1983	0.1	1005
4	0	0	5000
4	0	0	5000
4	0	0	5000
4	112	0.000006239	5000
4	112	0.000007563	5000
4	112	0.000008127	5000
4	112	0.000008666	5000
4	112	0.000009217	5000
4	112	0.000009732	5000
4	112	0.000010259	5000
4	112	0.000010788	5000
4	112	0.000011296	5000
4	112	0.000011847	5000
4	112	0.000012395	5000
4	113	0.0000128	5000
4	334	0.000967192	5000
4	334	0.001099643	5000
4	334	0.001218269	5000
4	334	0.001335207	5000
4	334	0.001445979	5000
4	334	0.001560664	5000
4	334	0.001670693	5000
4	334	0.001782829	5000
4	334	0.001900277	5000
4	334	0.002017504	5000
4	334	0.002130949	5000
4	334	0.002238334	5000
4	334	0.002353805	5000
4	474	0.0024128	5000
4	579	0.002950876	5000
4	579	0.003085491	5000
4	579	0.003200687	5000
4	579	0.003313788	5000
4	579	0.00342156	5000
4	579	0.003536435	5000
4	579	0.003656475	5000
4	579	0.003763253	5000
4	579	0.00389036	5000
4	579	0.00400076	5000
4	579	0.004113449	5000
4	579	0.004221513	5000
4	579	0.004338374	5000
4	579	0.004451626	5000
4	579	0.004562221	5000
4	579	0.004684487	5000
4	579	0.00479346	5000
4	729	0.0048128	5000
4	739	0.005153052	5000
4	739	0.005292014	5000
4	739	0.005397733	5000
4	739	0.005496649	5000
4	739	0.005598969	5000
4	739	0.005704891	5000
4	739	0.005807486	5000
4	739	0.005903568	5000
4	739	0.006005426	5000
4	739	0.006107957	5000
4	739	0.006206107	5000
4	739	0.006309987	5000
4	739	0.006418122	5000
4	739	0.006521426	5000
4	739	0.006621545	5000
4	739	0.006720214	5000
4	739	0.006818602	5000
4	739	0.006919801	5000
4	739	0.007020937	5000
4	739	0.007120948	5000
4	915	0.009520146	5000
4	1042	0.011170582	5000
4	1042	0.01135869	5000
4	1042	0.011464485	5000
4	1042	0.011568669	5000
4	1042	0.011671001	5000
4	1042	0.011777726	5000
4	1042	0.011879825	5000
4	1042	0.011982742	5000
4	1182	0.013739757	5000
4	1182	0.01401818	5000
4	1182	0.014121848	5000
4	1182	0.014224542	5000
4	1182	0.014321573	5000
4	1299	0.015630225	5000
4	1299	0.015978563	5000
4	1299	0.016077658	5000
4	1299	0.016188621	5000
4	1299	0.016286472	5000
4	1299	0.016383826	5000
4	1299	0.016486486	5000
4	1299	0.016584112	5000
4	1299	0.016683608	5000
4	1299	0.016781847	5000
4	1432	0.018508124	5000
4	1432	0.018664105	5000
4	1432	0.018776024	5000
4	1432	0.018873211	5000
4	1432	0.018978894	5000
4	1432	0.019077497	5000
4	1432	0.019179413	5000
4	1522	0.020120917	5000
4	1522	0.020259133	5000
4	1522	0.020356415	5000
4	1522	0.020451085	5000
4	1522	0.020549905	5000
4	1522	0.020651652	5000
4	1522	0.020748578	5000
4	1522	0.020848154	5000
4	1522	0.020940302	5000
4	1522	0.021032604	5000
4	1522	0.02112672	5000
4	1522	0.021225565	5000
4	1522	0.021320497	5000
4	1522	0.021414579	5000
4	1522	0.021507963	5000
4	1592	0.021930742	5000
4	1592	0.022551735	5000
4	1592	0.022654089	5000
4	1592	0.022750429	5000
4	1592	0.022843281	5000
4	1592	0.022946041	5000
4	1592	0.02304713	5000
4	1592	0.023146486	5000
4	1592	0.023243484	5000
4	1592	0.023338557	5000
4	1592	0.023434397	5000
4	1592	0.023530799	5000
4	1592	0.023630597	5000
4	1592	0.023733481	5000
4	1592	0.023827058	5000
4	1592	0.023919082	5000
4	1664	0.02431888	5000
4	1664	0.024947668	5000
4	1664	0.025064887	5000
4	1664	0.025165261	5000
4	1664	0.025262034	5000
4	1664	0.02536869	5000
4	1664	0.025481142	5000
4	1664	0.025577846	5000
4	1664	0.025687131	5000
4	1664	0.025786082	5000
4	1664	0.025884931	5000
4	1664	0.025992446	5000
4	1664	0.026100164	5000
4	1664	0.026201895	5000
4	1664	0.026299285	5000
4	1721	0.026611024	5000
4	1721	0.027065978	5000
4	1721	0.027163423	5000
4	1721	0.027257126	5000
4	1721	0.02736867	5000
4	1721	0.027467005	5000
4	1721	0.027563829	5000
4	1721	0.027663396	5000
4	1721	0.027775427	5000
4	1721	0.027874502	5000
4	1721	0.027969787	5000
4	1721	0.028087168	5000
4	1721	0.028191387	5000
4	1721	0.028289994	5000
4	1721	0.028389139	5000
4	1721	0.028486085	5000
4	1721	0.028590473	5000
4	1721	0.028686594	5000
4	1721	0.028783235	5000
4	1760	0.028990818	5000
4	1760	0.029269663	5000
4	1760	0.029376689	5000
4	1760	0.029474029	5000
4	1760	0.029570736	5000
4	1760	0.029660565	5000
4	1760	0.029764509	5000
4	1760	0.02986419	5000
4	1760	0.029960156	5000
4	1760	0.030054287	5000
4	1760	0.030144427	5000
4	1760	0.030248271	5000
4	1760	0.030340102	5000
4	1760	0.03043367	5000
4	1760	0.030529334	5000
4	1760	0.030619362	5000
4	1760	0.030726052	5000
4	1760	0.030818232	5000
4	1760	0.03091309	5000
4	1760	0.031005376	5000
4	1760	0.031104887	5000
4	1811	0.031379091	5000
4	1811	0.031879521	5000
4	1811	0.031984069	5000
4	1811	0.032083915	5000
4	1811	0.032186108	5000
4	1811	0.032284559	5000
4	1811	0.032376118	5000
4	1811	0.032466897	5000
4	1811	0.032580321	5000
4	1811	0.032675439	5000
4	1811	0.032773773	5000
4	1811	0.032867524	5000
4	1811	0.032959823	5000
4	1811	0.033057841	5000
4	1811	0.033153384	5000
4	1811	0.033252927	5000
4	1811	0.03334372	5000
4	1811	0.033434501	5000
4	1811	0.033538575	5000
4	1845	0.033695634	5000
4	1845	0.033907738	5000
4	1845	0.03400809	5000
4	1845	0.034099682	5000
4	1845	0.034193954	5000
4	1845	0.034287716	5000
4	1845	0.034383326	5000
4	1845	0.034482042	5000
4	1845	0.034580255	5000
4	1845	0.034676156	5000
4	1845	0.034771444	5000
4	1845	0.034861204	5000
4	1845	0.034951551	5000
4	1845	0.035055202	5000
4	1845	0.035149966	5000
4	1845	0.03525361	5000
4	1845	0.035354348	5000
4	1845	0.035455365	5000
4	1845	0.035546252	5000
4	1845	0.035641558	5000
4	1845	0.035731412	5000
4	1845	0.035824586	5000
4	1845	0.035924398	5000
4	1873	0.036077148	5000
4	1873	0.03630654	5000
4	1873	0.036399355	5000
4	1873	0.036500848	5000
4	1873	0.036595528	5000
4	1873	0.036690615	5000
4	1873	0.036788779	5000
4	1873	0.036882718	5000
4	1873	0.036979678	5000
4	1873	0.037074248	5000
4	1873	0.037166487	5000
4	1873	0.037258046	5000
4	1873	0.03734898	5000
4	1873	0.037447891	5000
4	1873	0.037540287	5000
4	1873	0.037634899	5000
4	1873	0.037728724	5000
4	1873	0.037818442	5000
4	1873	0.037921062	5000
4	1873	0.038019122	5000
4	1873	0.038113854	5000
4	1873	0.038210721	5000
4	1873	0.038300611	5000
4	1873	0.03838942	5000
4	1897	0.038527145	5000
4	1897	0.038727878	5000
4	1897	0.038833381	5000
4	1897	0.038925019	5000
4	1897	0.039019695	5000
4	1897	0.039125483	5000
4	1897	0.039215177	5000
4	1897	0.039304939	5000
4	1897	0.039399466	5000
4	1897	0.039492481	5000
4	1897	0.039585901	5000
4	1897	0.039677728	5000
4	1897	0.039782931	5000
4	1897	0.039875153	5000
4	1897	0.039972471	5000
4	1897	0.04007071	5000
4	1897	0.040167537	5000
4	1897	0.040267514	5000
4	1897	0.040359303	5000
4	1897	0.040453155	5000
4	1897	0.040543891	5000
4	1897	0.040635132	5000
4	1897	0.0407319	5000
4	1919	0.040861255	5000
4	1919	0.041058344	5000
4	1919	0.041156082	5000
4	1919	0.041245453	5000
4	1919	0.041337995	5000
4	1919	0.041426953	5000
4	1919	0.04152085	5000
4	1919	0.041618721	5000
4	1919	0.041714963	5000
4	1919	0.04180482	5000
4	1919	0.041913262	5000
4	1919	0.042011348	5000
4	1919	0.042110888	5000
4	1919	0.04220748	5000
4	1919	0.04230281	5000
4	1919	0.042394485	5000
4	1919	0.042499548	5000
4	1919	0.042598564	5000
4	1919	0.042690913	5000
4	1919	0.042784878	5000
4	1919	0.042878482	5000
4	1919	0.042973258	5000
4	1919	0.04307265	5000
4	1919	0.043168711	5000
4	1935	0.043290903	5000
4	1935	0.043453135	5000
4	1935	0.04355821	5000
4	1935	0.043656369	5000
4	1935	0.043750011	5000
4	1935	0.043847228	5000
4	1935	0.0439376	5000
4	1935	0.044031402	5000
4	1935	0.044124972	5000
4	1935	0.044221539	5000
4	1935	0.044317096	5000
4	1935	0.044408763	5000
4	1935	0.044500612	5000
4	1935	0.044596839	5000
4	1935	0.04469083	5000
4	1935	0.044784004	5000
4	1935	0.044873743	5000
4	1935	0.044976997	5000
4	1935	0.045078375	5000
4	1935	0.045170426	5000
4	1935	0.045268245	5000
4	1935	0.045359713	5000
4	1935	0.045456907	5000
4	1935	0.045557212	5000
4	1949	0.045676828	5000
4	1949	0.045854733	5000
4	1949	0.045946256	5000
4	1949	0.046041454	5000
4	1949	0.046133705	5000
4	1949	0.046223507	5000
4	1949	0.046314445	5000
4	1949	0.046417791	5000
4	1949	0.046511352	5000
4	1949	0.04660308	5000
4	1949	0.046695882	5000
4	1949	0.046792491	5000
4	1949	0.046896196	5000
4	1949	0.046992715	5000
4	1949	0.047088998	5000
4	1949	0.04718089	5000
4	1949	0.047274002	5000
4	1949	0.047367838	5000
4	1949	0.047461148	5000
4	1949	0.047552178	5000
4	1949	0.047647485	5000
4	1949	0.047738391	5000
4	1949	0.047832257	5000
4	1949	0.047932217	5000
4	1962	0.048049191	5000
4	1962	0.048239298	5000
4	1962	0.048339034	5000
4	1962	0.048434662	5000
4	1962	0.04853135	5000
4	1962	0.048619583	5000
4	1962	0.048719403	5000
4	1962	0.048817833	5000
4	1962	0.0489088	5000
4	1962	0.049005689	5000
4	1962	0.049101239	5000
4	1962	0.049195328	5000
4	1962	0.049289845	5000
4	1962	0.049379752	5000
4	1962	0.049476274	5000
4	1962	0.049568528	5000
4	1962	0.049664298	5000
4	1962	0.049759782	5000
4	1962	0.049853781	5000
4	1962	0.049956972	5000
4	1962	0.050053671	5000
4	1962	0.050142066	5000
4	1962	0.050236475	5000
4	1962	0.050331459	5000
4	1976	0.050453369	5000
4	1976	0.050617676	5000
4	1976	0.050730023	5000
4	1976	0.050830343	5000
4	1976	0.050927993	5000
4	1976	0.051020423	5000
4	1976	0.051114692	5000
4	1976	0.051213628	5000
4	1976	0.051310234	5000
4	1976	0.051408312	5000
4	1976	0.05150334	5000
4	1976	0.051616627	5000
4	1976	0.051712258	5000
4	1976	0.051820448	5000
4	1976	0.051921009	5000
4	1976	0.052012698	5000
4	1976	0.052104617	5000
4	1976	0.052201415	5000
4	1976	0.052292531	5000
4	1976	0.052387218	5000
4	1976	0.052487144	5000
4	1976	0.052578956	5000
4	1976	0.052668409	5000
4	1976	0.052766349	5000
4	1978	0.0528128	5000
4	1981	0.089682878	5000
4	1981	0.089700027	5000
4	1981	0.089711893	5000
4	1981	0.089724176	5000
4	1981	0.08973731	5000
4	1981	0.089750266	5000
4	1981	0.089762228	5000
4	1981	0.08977387	5000
4	1981	0.089786864	5000
4	1981	0.089798733	5000
4	1981	0.089810265	5000
4	1981	0.089822678	5000
4	1981	0.089835921	5000
4	1981	0.089847952	5000
4	1981	0.089860771	5000
4	1981	0.089872426	5000
4	1981	0.089885984	5000
4	1981	0.08989865	5000
4	1981	0.089910741	5000
4	1981	0.089922472	5000
4	1981	0.089933815	5000
4	1981	0.089945787	5000
4	1981	0.089958051	5000
4	1981	0.089970072	5000
4	1981	0.089981526	5000
4	1981	0.089982595	5000
4	1983	0.1	5000
5	0	0	1000
5	0	0	1000
5	0	0	1000
5	112	0.000006239	1000.00031195
5	112	0.000007563	1000.00037815
5	112	0.000008127	1000.00040635
5	112	0.000008666	1000.0004333
5	112	0.000009217	1000.00046085
5	112	0.000009732	1000.0004866
5	112	0.000010259	1000.00051295
5	112	0.000010788	1000.0005394
5	112	0.000011296	1000.0005648
5	112	0.000011847	1000.00059235
5	112	0.000012395	1000.00061975
5	113	0.0000128	1000.00064
5	334	0.000967192	1000.0483596
5	334	0.001099643	1000.05498215
5	334	0.001218269	1000.06091345
5	334	0.001335207	1000.06676035
5	334	0.001445979	1000.07229895
5	334	0.001560664	1000.0780332
5	334	0.001670693	1000.08353465
5	334	0.001782829	1000.08914145
5	334	0.001900277	1000.09501385
5	334	0.002017504	1000.1008752
5	334	0.002130949	1000.10654745
5	334	0.002238334	1000.1119167
5	334	0.002353805	1000.11769025
5	474	0.0024128	1000.12064
5	579	0.002950876	1000.1475438
5	579	0.003085491	1000.15427455
5	579	0.003200687	1000.16003435
5	579	0.003313788	1000.1656894
5	579	0.00342156	1000.171078
5	579	0.003536435	1000.17682175
5	579	0.003656475	1000.18282375
5	579	0.003763253	1000.18816265
5	579	0.00389036	1000.194518
5	579	0.00400076	1000.200038
5	579	0.004113449	1000.20567245
5	579	0.004221513	1000.21107565
5	579	0.004338374	1000.2169187
5	579	0.004451626	1000.2225813
5	579	0.004562221	1000.22811105
5	579	0.004684487	1000.23422435
5	579	0.00479346	1000.239673
5	729	0.0048128	1000.24064
5	739	0.005153052	1000.2576526
5	739	0.005292014	1000.2646007
5	739	0.005397733	1000.26988665
5	739	0.005496649	1000.27483245
5	739	0.005598969	1000.27994845
5	739	0.005704891	1000.28524455
5	739	0.005807486	1000.2903743
5	739	0.005903568	1000.2951784
5	739	0.006005426	1000.3002713
5	739	0.006107957	1000.30539785
5	739	0.006206107	1000.31030535
5	739	0.006309987	1000.31549935
5	739	0.006418122	1000.3209061
5	739	0.006521426	1000.3260713
5	739	0.006621545	1000.33107725
5	739	0.006720214	1000.3360107
5	739	0.006818602	1000.3409301
5	739	0.006919801	1000.34599005
5	739	0.007020937	1000.35104685
5	739	0.007120948	1000.3560474
5	915	0.009520146	1000.4760073
5	1042	0.011170582	1000.5585291
5	1042	0.01135869	1000.5679345
5	1042	0.011464485	1000.57322425
5	1042	0.011568669	1000.57843345
5	1042	0.011671001	1000.58355005
5	1042	0.011777726	1000.5888863
5	1042	0.011879825	1000.59399125
5	1042	0.011982742	1000.5991371
5	1182	0.013739757	1000.68698785
5	1182	0.01401818	1000.700909
5	1182	0.014121848	1000.7060924
5	1182	0.014224542	1000.7112271
5	1182	0.014321573	1000.71607865
[...]
49	1976	0.052201415	9002.61007075
49	1976	0.052292531	9002.61462655
49	1976	0.052387218	9002.6193609
49	1976	0.052487144	9002.6243572
49	1976	0.052578956	9002.6289478
49	1976	0.052668409	9002.63342045
49	1976	0.052766349	9002.63831745
49	1978	0.0528128	9002.64064
49	1981	0.089682878	9004.4841439
49	1981	0.089700027	9004.48500135
49	1981	0.089711893	9004.48559465
49	1981	0.089724176	9004.4862088
49	1981	0.08973731	9004.4868655
49	1981	0.089750266	9004.4875133
49	1981	0.089762228	9004.4881114
49	1981	0.08977387	9004.4886935
49	1981	0.089786864	9004.4893432
49	1981	0.089798733	9004.48993665
49	1981	0.089810265	9004.49051325
49	1981	0.089822678	9004.4911339
49	1981	0.089835921	9004.49179605
49	1981	0.089847952	9004.4923976
49	1981	0.089860771	9004.49303855
49	1981	0.089872426	9004.4936213
49	1981	0.089885984	9004.4942992
49	1981	0.08989865	9004.4949325
49	1981	0.089910741	9004.49553705
49	1981	0.089922472	9004.4961236
49	1981	0.089933815	9004.49669075
49	1981	0.089945787	9004.49728935
49	1981	0.089958051	9004.49790255
49	1981	0.089970072	9004.4985036
49	1981	0.089981526	9004.4990763
49	1981	0.089982595	9004.49912975
49	1983	0.1	9005
50	0	0	3609.418515116
51	0	0	5899.5129470713
52	0	0	7872.6344672032
53	0	0	2641.5360230021
54	1	0	1
54	335	0.0024	0.42857142857143
54	580	0.0048	0.5
54	740	0.0072	0.625
54	916	0.0096	0.75
54	1043	0.012	0.875
54	1183	0.0144	1
55	2	0	1
55	336	0.0024	1
55	581	0.0048	1
56	14	0	1
56	337	0.0024	1
56	1091	0.012	1
57	15	0	1
57	338	0.0024	1
57	583	0.0048	1
57	1621	0.024	1
58	20	0	1
58	339	0.0024	0.5
58	584	0.0048	0.57142857142857
58	743	0.0072	0.71428571428571
58	917	0.0096	0.85714285714286
58	1044	0.012	1
59	21	0	1
59	340	0.0024	0.25
59	585	0.0048	0.30769230769231
59	744	0.0072	0.38461538461538
59	918	0.0096	0.42857142857143
59	1045	0.012	0.46666666666667
59	1185	0.0144	0.53333333333333
59	1301	0.0168	0.6
59	1433	0.0192	0.66666666666667
59	1523	0.0216	0.73333333333333
59	1593	0.024	0.8
59	1665	0.0264	0.86666666666667
59	1722	0.0288	0.93333333333333
59	1761	0.0312	1
60	26	0	1
60	341	0.0024	0.6
60	586	0.0048	0.66666666666667
60	745	0.0072	0.83333333333333
60	919	0.0096	1
61	28	0	1
61	342	0.0024	0.42857142857143
61	587	0.0048	0.5
61	746	0.0072	0.625
61	920	0.0096	0.75
61	1047	0.012	0.875
61	1186	0.0144	1
62	42	0	1
62	343	0.0024	0.75
62	588	0.0048	0.8
62	747	0.0072	1
63	44	0	1
63	344	0.0024	0.33333333333333
63	589	0.0048	0.4
63	748	0.0072	0.45454545454545
63	922	0.0096	0.54545454545455
63	1048	0.012	0.63636363636364
63	1187	0.0144	0.72727272727273
63	1303	0.0168	0.75
63	1434	0.0192	0.83333333333333
63	1524	0.0216	0.91666666666667
63	1594	0.024	1
64	46	0	1
64	345	0.0024	0.5
64	590	0.0048	0.57142857142857
64	749	0.0072	0.71428571428571
64	923	0.0096	0.66666666666667
64	1049	0.012	0.77777777777778
64	1188	0.0144	0.88888888888889
64	1304	0.0168	1
65	47	0	1
65	346	0.0024	0.375
65	591	0.0048	0.44444444444444
65	750	0.0072	0.55555555555556
65	924	0.0096	0.66666666666667
65	1050	0.012	0.77777777777778
65	1189	0.0144	0.88888888888889
65	1305	0.0168	1
66	48	0	1
66	347	0.0024	0.33333333333333
66	592	0.0048	0.4
66	751	0.0072	0.5
66	925	0.0096	0.6
66	1051	0.012	0.63636363636364
66	1190	0.0144	0.72727272727273
66	1306	0.0168	0.81818181818182
66	1437	0.0192	0.90909090909091
66	1525	0.0216	1
67	54	0	1
67	348	0.0024	0.25
67	593	0.0048	0.30769230769231
67	752	0.0072	0.38461538461538
67	926	0.0096	0.46153846153846
67	1052	0.012	0.53846153846154
67	1191	0.0144	0.61538461538462
67	1307	0.0168	0.69230769230769
67	1438	0.0192	0.76923076923077
67	1526	0.0216	0.84615384615385
67	1596	0.024	0.92307692307692
67	1667	0.0264	1
68	88	0	1
68	349	0.0024	1
68	736	0.0048128	1
68	902	0.0072128	1
68	1093	0.012	1
68	1294	0.0144128	1
69	89	0	1
69	350	0.0024	1
69	595	0.0048	1
69	1520	0.0192128	1
69	1777	0.0312	1
70	90	0	1
70	351	0.0024	0.75
70	596	0.0048	0.44444444444444
70	754	0.0072	0.55555555555556
70	927	0.0096	0.66666666666667
70	1053	0.012	0.7
70	1192	0.0144	0.8
70	1308	0.0168	0.9
70	1439	0.0192	0.90909090909091
70	1527	0.0216	1
71	91	0	1
71	352	0.0024	1
71	597	0.0048	1
71	1617	0.024	1
72	92	0	1
72	353	0.0024	0.75
72	598	0.0048	0.57142857142857
72	756	0.0072	0.71428571428571
72	928	0.0096	0.85714285714286
72	1054	0.012	0.875
72	1193	0.0144	1
72	1349	0.0168	1
73	93	0	1
73	354	0.0024	0.75
73	599	0.0048	1
73	1553	0.0216	1
74	94	0	1
74	355	0.0024	0.75
74	600	0.0048	1
74	758	0.0072	1
74	929	0.0096	1
74	1178	0.0120128	1
74	1416	0.0168128	1
74	1688	0.0264	1
74	1890	0.0384128	1
74	1912	0.0408128	1
75	109	0	1
75	356	0.0024	1
75	1345	0.0168	1
76	116	0.0000128	1
76	434	0.0024128	0.75
76	659	0.0048128	1
77	117	0.0000128	1
77	435	0.0024128	0.75
77	660	0.0048128	1
78	118	0.0000128	1
78	436	0.0024128	0.75
78	661	0.0048128	1
79	119	0.0000128	1
79	437	0.0024128	0.75
79	662	0.0048128	1
79	988	0.0096	1
79	1425	0.0168128	1
79	1895	0.0384128	1
80	120	0.0000128	1
80	438	0.0024128	0.75
80	663	0.0048128	1
81	121	0.0000128	1
81	439	0.0024128	0.75
81	664	0.0048128	1
82	123	0.0000128	1
82	274	0.0000128	2
82	353	0.0024	1
82	977	0.0096	2
82	1054	0.012	1
82	1193	0.0144	0
82	1309	0.0168	0
82	1450	0.0192	0
83	124	0.0000128	1
83	275	0.0000128	2
83	351	0.0024	1
83	978	0.0096	2
83	1308	0.0168	1
83	1350	0.0168	2
83	1439	0.0192	1
83	1527	0.0216	0
83	1597	0.024	0
84	125	0.0000128	1
84	440	0.0024128	1
84	665	0.0048128	0.4
84	869	0.0072128	0.5
84	1004	0.0096128	0.54545454545455
84	1148	0.0120128	0.63636363636364
84	1263	0.0144128	0.72727272727273
84	1386	0.0168128	0.75
84	1481	0.0192128	0.83333333333333
84	1568	0.0216128	0.91666666666667
84	1638	0.0240128	1
85	126	0.0000128	1
85	441	0.0024128	1
85	666	0.0048128	0.4
85	870	0.0072128	0.5
85	1005	0.0096128	0.54545454545455
85	1149	0.0120128	0.63636363636364
85	1264	0.0144128	0.72727272727273
85	1387	0.0168128	0.75
85	1482	0.0192128	0.83333333333333
85	1569	0.0216128	0.91666666666667
85	1639	0.0240128	1
86	127	0.0000128	1
86	442	0.0024128	1
87	128	0.0000128	1
87	443	0.0024128	1
87	668	0.0048128	0.57142857142857
87	871	0.0072128	0.625
87	1006	0.0096128	0.66666666666667
87	1150	0.0120128	0.77777777777778
87	1265	0.0144128	0.88888888888889
87	1388	0.0168128	0.9
87	1483	0.0192128	1
88	149	0.0000128	1
88	444	0.0024128	1
88	913	0.0072128	1
88	1430	0.0168128	1
88	1550	0.0216	1
88	1659	0.0240128	1
89	150	0.0000128	1
89	445	0.0024128	0.75
89	670	0.0048128	1
89	872	0.0072128	1
89	1007	0.0096128	1
89	1551	0.0216	1
90	151	0.0000128	1
90	446	0.0024128	1
90	1552	0.0216	1
91	152	0.0000128	1
91	447	0.0024128	1
92	153	0.0000128	1
92	260	0.0000128	2
92	354	0.0024	1
92	599	0.0048	0
92	757	0.0072	0
92	1604	0.024	0
93	154	0.0000128	1
93	448	0.0024128	1
93	1554	0.0216	1
94	155	0.0000128	1
94	449	0.0024128	1
95	156	0.0000128	1
95	450	0.0024128	1
95	1687	0.0264	1
96	157	0.0000128	1
96	243	0.0000128	2
96	355	0.0024	1
96	600	0.0048	0
96	1055	0.012	0
96	1272	0.0144128	0
96	1490	0.0192128	0
96	1728	0.0288	0
96	1905	0.0408128	0
96	1927	0.0432128	0
97	158	0.0000128	1
97	451	0.0024128	1
97	676	0.0048128	1
97	1689	0.0264	1
98	159	0.0000128	1
98	452	0.0024128	1
98	985	0.0096	1
98	1243	0.0144	1
98	1354	0.0168	1
98	1509	0.0192128	1
98	1690	0.0264	1
98	1730	0.0288	1
98	1764	0.0312	1
98	1814	0.0336	1
98	1847	0.036	1
98	1933	0.0432128	1
99	160	0.0000128	1
99	453	0.0024128	1
99	903	0.0072128	1
99	1035	0.0096128	1
99	1653	0.0240128	1
99	1712	0.0264128	1
100	161	0.0000128	1
100	454	0.0024128	1
100	1098	0.012	1
100	1588	0.0216128	1
100	1692	0.0264	1
100	1960	0.0480128	1
100	1974	0.0504128	1
101	162	0.0000128	1
102	163	0.0000128	1
102	456	0.0024128	0.75
102	680	0.0048128	1
103	164	0.0000128	1
103	457	0.0024128	0.75
103	681	0.0048128	1
103	1257	0.0144	1
104	165	0.0000128	1
104	726	0.0048128	1
104	879	0.0072128	1
104	1009	0.0096128	1
104	1153	0.0120128	0.85714285714286
104	1267	0.0144128	0.77777777777778
104	1390	0.0168128	0.8
104	1484	0.0192128	0.81818181818182
104	1571	0.0216128	0.76923076923077
104	1640	0.0240128	0.78571428571429
104	1709	0.0264128	0.8
104	1750	0.0288128	0.86666666666667
104	1798	0.0312128	0.93333333333333
104	1831	0.0336128	0.9375
104	1860	0.0360128	0.94117647058824
104	1881	0.0384128	0.94444444444444
104	1902	0.0408128	0.94736842105263
104	1924	0.0432128	0.95
104	1940	0.0456128	0.95238095238095
104	1953	0.0480128	1
105	166	0.0000128	1
105	553	0.0024128	1
105	1239	0.0144	1
106	167	0.0000128	1
106	645	0.0048	1
106	761	0.0072	1
106	930	0.0096	0.83333333333333
106	1056	0.012	0.85714285714286
106	1194	0.0144	1
106	1310	0.0168	1
107	168	0.0000128	1
107	1001	0.0096	1
107	1241	0.0144	1
107	1476	0.0192	1
108	169	0.0000128	1
108	462	0.0024128	1
108	1176	0.0120128	1
108	1271	0.0144128	1
108	1394	0.0168128	1
108	1780	0.0312	1
108	1966	0.0504	1
109	170	0.0000128	1
109	463	0.0024128	1
110	171	0.0000128	1
110	356	0.0024	0
110	601	0.0048	0
110	1446	0.0192	0
111	172	0.0000128	1
111	1346	0.0168	1
112	173	0.0000128	1
112	465	0.0024128	1
112	1347	0.0168	1
113	174	0.0000128	1
113	1348	0.0168	1
114	175	0.0000128	1
114	467	0.0024128	1
114	1033	0.0096128	1
114	1156	0.0120128	1
114	1270	0.0144128	1
114	1393	0.0168128	1
114	1741	0.0288	1
115	224	0.0000128	1
115	352	0.0024	0
115	426	0.0024	1
115	597	0.0048	0
115	755	0.0072	0
115	1671	0.0264	0
116	225	0.0000128	1
116	468	0.0024128	1
116	1618	0.024	1
117	226	0.0000128	1
117	469	0.0024128	1
117	1619	0.024	1
118	227	0.0000128	1
118	470	0.0024128	1
118	688	0.0048128	1
118	983	0.0096	1
118	1620	0.024	1
119	228	0.0000128	1
119	338	0.0024	0
119	430	0.0024	1
119	583	0.0048	0
119	742	0.0072	0
119	1675	0.0264	0
120	229	0.0000128	1
120	471	0.0024128	1
120	801	0.0072	1
120	1344	0.0168	1
120	1445	0.0192	1
120	1622	0.024	1
120	1676	0.0264	1
121	230	0.0000128	1
121	248	0.0000128	2
121	456	0.0024128	1
121	680	0.0048128	0
121	874	0.0072128	0
122	231	0.0000128	1
122	249	0.0000128	2
122	288	0.0000128	3
122	407	0.0024	4
122	590	0.0048	3
122	749	0.0072	2
122	1188	0.0144	1
122	1304	0.0168	0
122	1435	0.0192	0
123	232	0.0000128	1
123	250	0.0000128	2
123	289	0.0000128	3
123	408	0.0024	4
123	1190	0.0144	3
123	1306	0.0168	2
123	1437	0.0192	1
123	1525	0.0216	0
123	1595	0.024	0
124	233	0.0000128	1
124	251	0.0000128	2
124	290	0.0000128	3
124	409	0.0024	4
124	924	0.0096	3
124	1050	0.012	2
124	1189	0.0144	1
124	1305	0.0168	0
124	1436	0.0192	0
125	234	0.0000128	1
125	252	0.0000128	2
125	291	0.0000128	3
125	410	0.0024	4
125	1438	0.0192	3
125	1526	0.0216	2
125	1596	0.024	1
125	1667	0.0264	0
125	1723	0.0288	0
126	235	0.0000128	1
126	253	0.0000128	2
126	292	0.0000128	3
126	411	0.0024	4
126	1187	0.0144	3
126	1434	0.0192	2
126	1524	0.0216	1
126	1594	0.024	0
126	1666	0.0264	0
127	236	0.0000128	1
127	420	0.0024	2
127	434	0.0024128	1
127	659	0.0048128	0
127	863	0.0072128	0
128	237	0.0000128	1
128	421	0.0024	2
128	435	0.0024128	1
128	660	0.0048128	0
128	864	0.0072128	0
129	238	0.0000128	1
129	422	0.0024	2
129	436	0.0024128	1
129	661	0.0048128	0
129	865	0.0072128	0
130	239	0.0000128	1
130	423	0.0024	2
130	437	0.0024128	1
130	662	0.0048128	0
130	866	0.0072128	0
130	1062	0.012	0
130	1493	0.0192128	0
130	1906	0.0408128	0
131	240	0.0000128	1
131	424	0.0024	2
131	438	0.0024128	1
131	663	0.0048128	0
131	867	0.0072128	0
132	241	0.0000128	1
132	425	0.0024	2
132	439	0.0024128	1
132	664	0.0048128	0
132	868	0.0072128	0
133	242	0.0000128	1
133	450	0.0024128	0
133	675	0.0048128	0
133	1727	0.0288	0
134	244	0.0000128	1
134	451	0.0024128	0
134	873	0.0072128	0
134	1729	0.0288	0
135	245	0.0000128	1
135	452	0.0024128	0
135	677	0.0048128	0
135	1061	0.012	0
135	1318	0.0168	0
135	1451	0.0192	0
135	1575	0.0216128	0
135	1875	0.0384	0
135	1942	0.0456128	0
136	246	0.0000128	1
136	453	0.0024128	0
136	678	0.0048128	0
136	1014	0.0096128	0
136	1158	0.0120128	0
136	1691	0.0264	1
136	1712	0.0264128	0
136	1752	0.0288128	0
137	247	0.0000128	1
137	454	0.0024128	0
137	679	0.0048128	0
137	1202	0.0144	0
137	1643	0.0240128	0
137	1731	0.0288	0
137	1971	0.0504128	0
137	1980	0.0528128	0
138	254	0.0000128	1
138	463	0.0024128	0
138	683	0.0048128	0
139	255	0.0000128	1
139	263	0.0000128	2
139	457	0.0024128	1
139	681	0.0048128	0
139	875	0.0072128	0
139	1319	0.0168	0
140	256	0.0000128	1
140	444	0.0024128	0
140	669	0.0048128	0
140	1015	0.0096128	0
140	1494	0.0192128	0
140	1601	0.024	0
140	1714	0.0264128	0
141	257	0.0000128	1
141	670	0.0048128	0
141	1151	0.0120128	0
141	1602	0.024	0
142	258	0.0000128	1
142	446	0.0024128	0
142	671	0.0048128	0
142	1603	0.024	0
143	259	0.0000128	1
143	447	0.0024128	0
143	672	0.0048128	0
144	261	0.0000128	1
144	448	0.0024128	0
144	673	0.0048128	0
144	1605	0.024	0
145	262	0.0000128	1
145	472	0.0024128	0.75
145	690	0.0048128	1
146	264	0.0000128	1
146	336	0.0024	0
146	417	0.0024	1
146	581	0.0048	0
146	741	0.0072	0
147	265	0.0000128	1
147	473	0.0024128	1
148	266	0.0000128	1
148	419	0.0024	2
148	1043	0.012	1
148	1183	0.0144	0
148	1300	0.0168	0
149	267	0.0000128	1
149	287	0.0000128	2
149	472	0.0024128	1
149	690	0.0048128	0
149	877	0.0072128	0
150	268	0.0000128	1
150	337	0.0024	0
150	582	0.0048	0
150	1196	0.0144	0
151	269	0.0000128	1
151	474	0.0024128	1
151	692	0.0048128	1
151	878	0.0072128	1
151	1008	0.0096128	1
151	1152	0.0120128	0.875
151	1266	0.0144128	1
152	270	0.0000128	1
152	349	0.0024	0
152	594	0.0048	0
152	882	0.0072128	0
152	1013	0.0096128	0
152	1197	0.0144	0
152	1395	0.0168128	0
153	271	0.0000128	1
153	1094	0.012	1
154	272	0.0000128	1
154	1095	0.012	1
154	1508	0.0192128	1
154	1587	0.0216128	1
154	1652	0.0240128	1
154	1839	0.0336128	1
154	1868	0.0360128	1
154	1889	0.0384128	1
154	1911	0.0408128	1
155	273	0.0000128	1
155	642	0.0048	1
155	794	0.0072	1
155	1096	0.012	1
155	1200	0.0144	1
155	1415	0.0168128	1
155	1757	0.0288128	1
155	1805	0.0312128	1
155	1947	0.0456128	1
156	276	0.0000128	1
156	440	0.0024128	0
156	979	0.0096	1
156	1351	0.0168	2
156	1568	0.0216128	1
156	1638	0.0240128	0
156	1707	0.0264128	0
157	277	0.0000128	1
157	441	0.0024128	0
157	980	0.0096	1
157	1352	0.0168	2
157	1569	0.0216128	1
157	1639	0.0240128	0
157	1708	0.0264128	0
158	278	0.0000128	1
158	442	0.0024128	0
158	667	0.0048128	0
159	279	0.0000128	1
159	443	0.0024128	0
159	981	0.0096	1
159	1353	0.0168	2
159	1388	0.0168128	1
159	1483	0.0192128	0
159	1570	0.0216128	0
160	280	0.0000128	1
160	467	0.0024128	0
160	685	0.0048128	0
160	1487	0.0192128	0
160	1765	0.0312	0
161	281	0.0000128	1
161	412	0.0024	2
161	917	0.0096	1
161	1044	0.012	0
161	1184	0.0144	0
162	282	0.0000128	1
162	413	0.0024	2
162	745	0.0072	1
162	919	0.0096	0
162	1046	0.012	0
163	283	0.0000128	1
163	414	0.0024	2
163	588	0.0048	1
163	747	0.0072	0
163	921	0.0096	0
164	284	0.0000128	1
164	415	0.0024	2
164	1047	0.012	1
164	1186	0.0144	0
164	1302	0.0168	0
165	285	0.0000128	1
165	416	0.0024	2
165	1722	0.0288	1
165	1761	0.0312	0
165	1812	0.0336	0
166	286	0.0000128	1
166	449	0.0024128	0
166	674	0.0048128	0
167	293	0.0000128	1
167	643	0.0048	1
167	795	0.0072	1
167	1097	0.012	1
167	1237	0.0144	1
167	1774	0.0312	1
168	294	0.0000128	1
168	1343	0.0168	1
168	1474	0.0192	1
168	1616	0.024	1
168	1747	0.0288	1
168	1775	0.0312	1
169	295	0.0000128	1
169	1776	0.0312	1
170	296	0.0000128	1
170	350	0.0024	0
170	753	0.0072	0
170	1578	0.0216128	0
170	1818	0.0336	0
171	297	0.0000128	1
171	1778	0.0312	1
172	298	0.0000128	1
172	976	0.0096	1
172	1779	0.0312	1
173	299	0.0000128	1
174	300	0.0000128	1
175	404	0.0024	1
175	798	0.0072	1
175	1383	0.0168	1
175	1658	0.0240128	1
175	1857	0.036	1
175	1917	0.0408128	1
176	418	0.0024	1
176	473	0.0024128	0
176	691	0.0048128	0
177	427	0.0024	1
177	468	0.0024128	0
177	686	0.0048128	0
177	1672	0.0264	0
178	428	0.0024	1
178	469	0.0024128	0
178	687	0.0048128	0
178	1673	0.0264	0
179	429	0.0024	1
179	470	0.0024128	0
179	876	0.0072128	0
179	1060	0.012	0
179	1674	0.0264	0
180	431	0.0024	1
180	471	0.0024128	0
180	689	0.0048128	0
180	937	0.0096	0
180	1531	0.0216	0
180	1726	0.0288	0
181	455	0.0024128	0
182	458	0.0024128	0
182	1238	0.0144	1
182	1953	0.0480128	0
182	1969	0.0504128	0
183	459	0.0024128	0
183	693	0.0048128	0
183	1316	0.0168	0
184	460	0.0024128	0
184	1240	0.0144	1
184	1310	0.0168	0
184	1440	0.0192	0
185	461	0.0024128	0
185	1064	0.012	0
185	1317	0.0168	0
185	1533	0.0216	0
186	464	0.0024128	0
186	1447	0.0192	0
187	466	0.0024128	0
187	1449	0.0192	0
188	475	0.0024128	0
188	1198	0.0144	0
189	476	0.0024128	0
189	1199	0.0144	0
189	1574	0.0216128	0
189	1642	0.0240128	0
189	1711	0.0264128	0
189	1862	0.0360128	0
189	1883	0.0384128	0
189	1904	0.0408128	0
189	1926	0.0432128	0
190	477	0.0024128	0
190	759	0.0072	0
190	931	0.0096	0
190	1312	0.0168	0
190	1489	0.0192128	0
190	1800	0.0312128	0
190	1833	0.0336128	0
190	1955	0.0480128	0
191	478	0.0024128	0
191	760	0.0072	0
191	932	0.0096	0
191	1201	0.0144	0
191	1315	0.0168	0
191	1815	0.0336	0
192	479	0.0024128	0
192	1444	0.0192	0
192	1532	0.0216	0
192	1670	0.0264	0
192	1767	0.0312	0
192	1816	0.0336	0
193	480	0.0024128	0
193	1817	0.0336	0
194	481	0.0024128	0
194	1819	0.0336	0
195	482	0.0024128	0
195	1059	0.012	0
195	1820	0.0336	0
196	483	0.0024128	0
197	484	0.0024128	0
198	602	0.0048	0
198	934	0.0096	0
198	1455	0.0192	0
198	1713	0.0264128	0
198	1877	0.0384	0
198	1928	0.0432128	0
199	656	0.0048	1
200	682	0.0048128	0
200	1242	0.0144	1
200	1271	0.0144128	0
200	1488	0.0192128	0
200	1821	0.0336	0
200	1978	0.0528	0
201	684	0.0048128	0
201	1448	0.0192	0
202	727	0.0048128	1
202	880	0.0072128	0.21428571428571
202	1010	0.0096128	0.26666666666667
202	1154	0.0120128	0.33333333333333
202	1268	0.0144128	0.35294117647059
202	1391	0.0168128	0.36842105263158
202	1485	0.0192128	0.4
202	1572	0.0216128	0.42857142857143
202	1641	0.0240128	0.47619047619048
202	1710	0.0264128	0.52380952380952
202	1751	0.0288128	0.57142857142857
202	1799	0.0312128	0.61904761904762
202	1832	0.0336128	0.66666666666667
202	1861	0.0360128	0.71428571428571
202	1882	0.0384128	0.76190476190476
202	1903	0.0408128	0.80952380952381
202	1925	0.0432128	0.85714285714286
202	1941	0.0456128	0.9047619047619
202	1954	0.0480128	0.95238095238095
202	1970	0.0504128	1
203	728	0.0048128	1
204	762	0.0072	0
205	797	0.0072	1
205	1517	0.0192128	1
205	1871	0.0360128	1
206	799	0.0072	1
207	800	0.0072	1
207	1843	0.0336128	1
208	807	0.0072	1
208	1106	0.012	1
208	1204	0.0144	0.57142857142857
208	1314	0.0168	0.71428571428571
208	1443	0.0192	0.85714285714286
208	1530	0.0216	1
209	824	0.0072	1
209	1424	0.0168128	1
209	1809	0.0312128	1
210	825	0.0072	1
211	826	0.0072	1
211	941	0.0096	0.27272727272727
211	1057	0.012	0.36363636363636
211	1195	0.0144	0.45454545454545
211	1311	0.0168	0.54545454545455
211	1441	0.0192	0.63636363636364
211	1528	0.0216	0.72727272727273
211	1598	0.024	0.81818181818182
211	1668	0.0264	0.90909090909091
211	1724	0.0288	1
212	828	0.0072	1
212	942	0.0096	1
212	1145	0.012	1
213	858	0.0072	1
213	990	0.0096	1
213	1099	0.012	1
213	1203	0.0144	0.29411764705882
213	1313	0.0168	0.33333333333333
213	1442	0.0192	0.38888888888889
213	1529	0.0216	0.42105263157895
213	1599	0.024	0.45
213	1669	0.0264	0.5
213	1725	0.0288	0.55
213	1763	0.0312	0.6
213	1813	0.0336	0.65
213	1846	0.036	0.7
213	1874	0.0384	0.75
213	1898	0.0408	0.8
213	1920	0.0432	0.85
213	1936	0.0456	0.9
213	1950	0.048	0.95
213	1963	0.0504	1
214	881	0.0072128	0
215	899	0.0072128	1
215	1011	0.0096128	1
215	1155	0.0120128	0.57142857142857
215	1269	0.0144128	0.71428571428571
215	1392	0.0168128	0.85714285714286
215	1486	0.0192128	1
215	1693	0.0264	1
216	900	0.0072128	1
216	1034	0.0096128	1
217	933	0.0096	0
217	1577	0.0216128	0
217	1884	0.0384128	0
218	935	0.0096	0
219	936	0.0096	0
219	1863	0.0360128	0
220	938	0.0096	0
220	1600	0.024	0
221	939	0.0096	0
221	1492	0.0192128	0
221	1834	0.0336128	0
222	940	0.0096	0
223	943	0.0096	0
223	1063	0.012	0
223	1977	0.0528	0
224	1012	0.0096128	0
224	1157	0.0120128	0
225	1058	0.012	0
225	1206	0.0144	0
226	1092	0.012	1
226	1266	0.0144128	0
226	1389	0.0168128	0
227	1107	0.012	1
227	1355	0.0168	1
228	1205	0.0144	0
228	1452	0.0192	0
229	1258	0.0144	1
229	1377	0.0168	1
229	1828	0.0336	1
229	1854	0.036	1
230	1295	0.0144128	1
231	1320	0.0168	0
231	1454	0.0192	0
231	1848	0.036	0
231	1876	0.0384	0
232	1376	0.0168	1
233	1396	0.0168128	0
234	1417	0.0168128	1
235	1453	0.0192	0
236	1491	0.0192128	0
237	1510	0.0192128	1
238	1573	0.0216128	0
238	1732	0.0288	0
239	1576	0.0216128	0
240	1742	0.0288	1
240	1781	0.0312	1
241	1762	0.0312	0
242	1766	0.0312	0
242	1822	0.0336	0
243	1979	0.0528128	0

