version 2
run NetK-0-20200915-15:42:51-12284
attr configname NetK
attr datetime 20200915-15:42:51
attr experiment NetK
attr inifile omnetpp.ini
attr iterationvars "$seed=1, $alpha=5, $mVar=5, $LB=true, $LinkPre=true"
attr iterationvarsf seed=1,alpha=5,mVar=5,LB=true,LinkPre=true-
attr measurement "$seed=1, $alpha=5, $mVar=5, $LB=true, $LinkPre=true"
attr network networks.NetK
attr processid 12284
attr repetition 0
attr replication #0
attr resultdir results
attr runnumber 0
attr seedset 1
itervar LB true
itervar LinkPre true
itervar alpha 5
itervar mVar 5
itervar seed 1
param **.num_of_hosts 25
param **.num_of_terminals 2
param *.rte[*].app.hasApp false
param *.terminal[*].radius 1500m
param *.terminal[*].frac 0.8
param *.rte[*].maxTerminalNumber 10
param *.rte[*].maxHopCountForTerminalList 2
param **.maxX 10000m
param **.maxY 10000m
param **.minX 0m
param **.minY 0m
param *.rte[*].mobility.typename "\"TurtleMobility\""
param *.rte[*].mobilityType "\"TurtleMobility\""
param *.rte[0].mobility.turtleScript "xmldoc(\"mobility.xml\", \"movements//movement[@id='0']\")"
param *.rte[1].mobility.turtleScript "xmldoc(\"mobility.xml\", \"movements//movement[@id='1']\")"
param *.rte[2].mobility.turtleScript "xmldoc(\"mobility.xml\", \"movements//movement[@id='2']\")"
param *.rte[3].mobility.turtleScript "xmldoc(\"mobility.xml\", \"movements//movement[@id='3']\")"
param *.rte[4].mobility.turtleScript "xmldoc(\"mobility.xml\", \"movements//movement[@id='4']\")"
param *.rte[5].mobility.turtleScript "xmldoc(\"mobility.xml\", \"movements//movement[@id='5']\")"
param *.rte[6].mobility.turtleScript "xmldoc(\"mobility.xml\", \"movements//movement[@id='6']\")"
param *.rte[7].mobility.turtleScript "xmldoc(\"mobility.xml\", \"movements//movement[@id='7']\")"
param *.rte[8].mobility.turtleScript "xmldoc(\"mobility.xml\", \"movements//movement[@id='8']\")"
param *.rte[9].mobility.turtleScript "xmldoc(\"mobility.xml\", \"movements//movement[@id='9']\")"
param *.rte[10].mobility.turtleScript "xmldoc(\"mobility.xml\", \"movements//movement[@id='10']\")"
param *.rte[11].mobility.turtleScript "xmldoc(\"mobility.xml\", \"movements//movement[@id='11']\")"
param *.rte[12].mobility.turtleScript "xmldoc(\"mobility.xml\", \"movements//movement[@id='12']\")"
param *.rte[13].mobility.turtleScript "xmldoc(\"mobility.xml\", \"movements//movement[@id='13']\")"
param *.rte[14].mobility.turtleScript "xmldoc(\"mobility.xml\", \"movements//movement[@id='14']\")"
param *.rte[15].mobility.turtleScript "xmldoc(\"mobility.xml\", \"movements//movement[@id='15']\")"
param *.rte[16].mobility.turtleScript "xmldoc(\"mobility.xml\", \"movements//movement[@id='16']\")"
param *.rte[17].mobility.turtleScript "xmldoc(\"mobility.xml\", \"movements//movement[@id='17']\")"
param *.rte[18].mobility.turtleScript "xmldoc(\"mobility.xml\", \"movements//movement[@id='18']\")"
param *.rte[19].mobility.turtleScript "xmldoc(\"mobility.xml\", \"movements//movement[@id='19']\")"
param *.rte[20].mobility.turtleScript "xmldoc(\"mobility.xml\", \"movements//movement[@id='20']\")"
param *.rte[21].mobility.turtleScript "xmldoc(\"mobility.xml\", \"movements//movement[@id='21']\")"
param *.rte[22].mobility.turtleScript "xmldoc(\"mobility.xml\", \"movements//movement[@id='22']\")"
param *.rte[23].mobility.turtleScript "xmldoc(\"mobility.xml\", \"movements//movement[@id='23']\")"
param *.rte[24].mobility.turtleScript "xmldoc(\"mobility.xml\", \"movements//movement[@id='24']\")"
param *.terminal[*].mobility.typename "\"StationaryMobility\""
param *.terminal[*].mobilityType "\"StationaryMobility\""
param **.alpha 5
param **.m_var 5
param **.changeRate 25s
param **.terminal[*].app.packetLength "1500 bytes"
param **.terminal[*].app.sendIaTime exponential(150ms)
param **.terminal[*].app.burst_next_event exponential(25s)
param **.terminal[*].app.burst_next_interval exponential(40ms)
param **.terminal[*].app.burst_size "intuniform (80,320)"
param **.rte[*].frameCapacity 7000
param **.datarate 5Mbps
param **.load_balance_mode true
param **.load_balance_link_prediction true
param **.load_threshold 85
param **.rte[*].appType "\"App\""

scalar NetK.rte[0].grid x 1000
scalar NetK.rte[0].grid y 1000
scalar NetK.rte[0].grid z 0
scalar NetK.rte[1].grid x 3000
scalar NetK.rte[1].grid y 1000
scalar NetK.rte[1].grid z 0
scalar NetK.rte[2].grid x 5000
scalar NetK.rte[2].grid y 1000
scalar NetK.rte[2].grid z 0
scalar NetK.rte[3].grid x 7000
scalar NetK.rte[3].grid y 1000
scalar NetK.rte[3].grid z 0
scalar NetK.rte[4].grid x 9000
scalar NetK.rte[4].grid y 1000
scalar NetK.rte[4].grid z 0
scalar NetK.rte[5].grid x 1000
scalar NetK.rte[5].grid y 3000
scalar NetK.rte[5].grid z 0
scalar NetK.rte[6].grid x 3000
scalar NetK.rte[6].grid y 3000
scalar NetK.rte[6].grid z 0
scalar NetK.rte[7].grid x 5000
scalar NetK.rte[7].grid y 3000
scalar NetK.rte[7].grid z 0
scalar NetK.rte[8].grid x 7000
scalar NetK.rte[8].grid y 3000
scalar NetK.rte[8].grid z 0
scalar NetK.rte[9].grid x 9000
scalar NetK.rte[9].grid y 3000
scalar NetK.rte[9].grid z 0
scalar NetK.rte[10].grid x 1000
scalar NetK.rte[10].grid y 5000
scalar NetK.rte[10].grid z 0
scalar NetK.rte[11].grid x 3000
scalar NetK.rte[11].grid y 5000
scalar NetK.rte[11].grid z 0
scalar NetK.rte[12].grid x 5000
scalar NetK.rte[12].grid y 5000
scalar NetK.rte[12].grid z 0
scalar NetK.rte[13].grid x 7000
scalar NetK.rte[13].grid y 5000
scalar NetK.rte[13].grid z 0
scalar NetK.rte[14].grid x 9000
scalar NetK.rte[14].grid y 5000
scalar NetK.rte[14].grid z 0
scalar NetK.rte[15].grid x 1000
scalar NetK.rte[15].grid y 7000
scalar NetK.rte[15].grid z 0
scalar NetK.rte[16].grid x 3000
scalar NetK.rte[16].grid y 7000
scalar NetK.rte[16].grid z 0
scalar NetK.rte[17].grid x 5000
scalar NetK.rte[17].grid y 7000
scalar NetK.rte[17].grid z 0
scalar NetK.rte[18].grid x 7000
scalar NetK.rte[18].grid y 7000
scalar NetK.rte[18].grid z 0
scalar NetK.rte[19].grid x 9000
scalar NetK.rte[19].grid y 7000
scalar NetK.rte[19].grid z 0
scalar NetK.rte[20].grid x 1000
scalar NetK.rte[20].grid y 9000
scalar NetK.rte[20].grid z 0
scalar NetK.rte[21].grid x 3000
scalar NetK.rte[21].grid y 9000
scalar NetK.rte[21].grid z 0
scalar NetK.rte[22].grid x 5000
scalar NetK.rte[22].grid y 9000
scalar NetK.rte[22].grid z 0
scalar NetK.rte[23].grid x 7000
scalar NetK.rte[23].grid y 9000
scalar NetK.rte[23].grid z 0
scalar NetK.rte[24].grid x 9000
scalar NetK.rte[24].grid y 9000
scalar NetK.rte[24].grid z 0
scalar NetK.rte[0].app #sent 0
scalar NetK.rte[0].app #received 1.7095490711442e-306
statistic NetK.rte[0].app "hop count"
field count 0
field mean nan
field stddev nan
field min nan
field max nan
field sum 0
field sqrsum 0
bin	-inf	0
bin	0	0
bin	1	0
scalar NetK.rte[0].app hopCount:mean nan
attr interpolationmode none
attr title "hop count of arrived packets, mean"
scalar NetK.rte[0].app hopCount:max nan
attr interpolationmode none
attr title "hop count of arrived packets, max"
scalar NetK.rte[0].app hopCount:count 0
attr interpolationmode none
attr title "hop count of arrived packets, count"
statistic NetK.rte[0].app hopCount:histogram
field count 0
field mean nan
field stddev nan
field min nan
field max nan
field sum 0
field sqrsum 0
attr interpolationmode none
attr title "hop count of arrived packets, histogram"
bin	-inf	0
bin	0	0
bin	1	0
scalar NetK.rte[0].app endToEndDelay:mean nan
attr interpolationmode none
attr title "end-to-end delay of arrived packets, mean"
attr unit s
scalar NetK.rte[0].app endToEndDelay:max nan
attr interpolationmode none
attr title "end-to-end delay of arrived packets, max"
attr unit s
scalar NetK.rte[0].app endToEndDelay:count 0
attr interpolationmode none
attr title "end-to-end delay of arrived packets, count"
attr unit s
scalar NetK.rte[0].routing "Terminal Messages dropped due to wrong prediction" 0
statistic NetK.rte[0].routing TopoLinkCounter:histogram
field count 8
field mean 103
field stddev 11.301074538038
field min 78
field max 115
field sum 824
field sqrsum 85766
attr interpolationmode none
attr title "Number of links enabled in Topology, histogram"
bin	-inf	0
bin	68	0
bin	69	0
bin	70	0
bin	71	0
bin	72	0
bin	73	0
bin	74	0
bin	75	0
bin	76	0
bin	77	0
bin	78	1
bin	79	0
bin	80	0
bin	81	0
bin	82	0
bin	83	0
bin	84	0
bin	85	0
bin	86	0
bin	87	0
bin	88	0
bin	89	0
bin	90	0
bin	91	0
bin	92	0
bin	93	0
bin	94	0
bin	95	0
bin	96	0
bin	97	0
bin	98	0
bin	99	1
bin	100	1
bin	101	0
bin	102	0
bin	103	0
bin	104	0
bin	105	0
bin	106	0
bin	107	0
bin	108	4
bin	109	0
bin	110	0
bin	111	0
bin	112	0
bin	113	0
bin	114	0
bin	115	1
bin	116	0
bin	117	0
bin	118	0
bin	119	0
bin	120	0
bin	121	0
bin	122	0
bin	123	0
bin	124	0
bin	125	0
scalar NetK.rte[0].routing TopoLinkCounter:mean 103
attr interpolationmode none
attr title "Number of links enabled in Topology, mean"
scalar NetK.rte[0].routing TopoLinkCounter:max 115
attr interpolationmode none
attr title "Number of links enabled in Topology, max"
scalar NetK.rte[0].routing TopoLinkCounter:count 8
attr interpolationmode none
attr title "Number of links enabled in Topology, count"
statistic NetK.rte[0].routing outputIf:histogram
field count 0
field mean nan
field stddev nan
field min nan
field max nan
field sum 0
field sqrsum 0
attr interpolationmode none
attr title "output interface for each routed packet, histogram"
bin	-inf	0
bin	0	0
bin	1	0
scalar NetK.rte[0].routing drop:count 0
attr interpolationmode none
attr title "dropped packet byte length, count"
attr unit bytes
scalar NetK.rte[0].routing drop:sum 0
attr interpolationmode none
attr title "dropped packet byte length, sum"
attr unit bytes
statistic NetK.rte[0].routing hopCount:histogram
field count 0
field mean nan
field stddev nan
field min nan
field max nan
field sum 0
field sqrsum 0
attr interpolationmode none
attr title "count number of hops for packet, histogram"
bin	-inf	0
bin	0	0
bin	1	0
scalar NetK.rte[0].routing hopCount:mean nan
attr interpolationmode none
attr title "count number of hops for packet, mean"
scalar NetK.rte[0].routing hopCount:max nan
attr interpolationmode none
attr title "count number of hops for packet, max"
scalar NetK.rte[0].routing hopCount:count 0
attr interpolationmode none
attr title "count number of hops for packet, count"
statistic NetK.rte[0].queue[0] "drop count"
field count 0
field mean nan
field stddev nan
field min nan
field max nan
field sum 0
field sqrsum 0
bin	-inf	0
bin	0	0
bin	1	0
scalar NetK.rte[0].queue[0] rxBytes:count 40
attr interpolationmode none
attr title "received packet byte length, count"
attr unit bytes
scalar NetK.rte[0].queue[0] rxBytes:sum 60000
attr interpolationmode none
attr title "received packet byte length, sum"
attr unit bytes
statistic NetK.rte[0].queue[0] rxBytes:histogram
field count 40
field mean 1500
field stddev 0
field min 1500
field max 1500
field sum 60000
field sqrsum 90000000
attr interpolationmode none
attr title "received packet byte length, histogram"
attr unit bytes
bin	-inf	0
bin	1499	0
bin	1500	40
bin	1501	0
scalar NetK.rte[0].queue[0] txBytes:count 25
attr interpolationmode none
attr title "transmitting packet byte length, count"
attr unit bytes
scalar NetK.rte[0].queue[0] txBytes:sum 37500
attr interpolationmode none
attr title "transmitting packet byte length, sum"
attr unit bytes
statistic NetK.rte[0].queue[0] txBytes:histogram
field count 25
field mean 1500
field stddev 0
field min 1500
field max 1500
field sum 37500
field sqrsum 56250000
attr interpolationmode none
attr title "transmitting packet byte length, histogram"
attr unit bytes
bin	-inf	0
bin	1499	0
bin	1500	25
bin	1501	0
scalar NetK.rte[0].queue[0] busy:timeavg 0.00030913557449755
attr interpolationmode sample-hold
attr title "server busy state, timeavg"
scalar NetK.rte[0].queue[0] qlen:timeavg 4.9395742997049e-005
attr interpolationmode sample-hold
attr title "queue length, timeavg"
scalar NetK.rte[0].queue[0] qlen:max 1
attr interpolationmode sample-hold
attr title "queue length, max"
scalar NetK.rte[0].queue[0] drop:count 0
attr interpolationmode none
attr title "dropped packet byte length, count"
attr unit bytes
scalar NetK.rte[0].queue[0] drop:sum 0
attr interpolationmode none
attr title "dropped packet byte length, sum"
attr unit bytes
statistic NetK.rte[0].queue[1] "drop count"
field count 0
field mean nan
field stddev nan
field min nan
field max nan
field sum 0
field sqrsum 0
bin	-inf	0
bin	0	0
bin	1	0
scalar NetK.rte[0].queue[1] rxBytes:count 45
attr interpolationmode none
attr title "received packet byte length, count"
attr unit bytes
scalar NetK.rte[0].queue[1] rxBytes:sum 67500
attr interpolationmode none
attr title "received packet byte length, sum"
attr unit bytes
statistic NetK.rte[0].queue[1] rxBytes:histogram
field count 45
field mean 1500
field stddev 0
field min 1500
field max 1500
field sum 67500
field sqrsum 101250000
attr interpolationmode none
attr title "received packet byte length, histogram"
attr unit bytes
bin	-inf	0
bin	1499	0
bin	1500	45
bin	1501	0
scalar NetK.rte[0].queue[1] txBytes:count 24
attr interpolationmode none
attr title "transmitting packet byte length, count"
attr unit bytes
scalar NetK.rte[0].queue[1] txBytes:sum 36000
attr interpolationmode none
attr title "transmitting packet byte length, sum"
attr unit bytes
statistic NetK.rte[0].queue[1] txBytes:histogram
field count 24
field mean 1500
field stddev 0
field min 1500
field max 1500
field sum 36000
field sqrsum 54000000
attr interpolationmode none
attr title "transmitting packet byte length, histogram"
attr unit bytes
bin	-inf	0
bin	1499	0
bin	1500	24
bin	1501	0
scalar NetK.rte[0].queue[1] busy:timeavg 0.00029677015151765
attr interpolationmode sample-hold
attr title "server busy state, timeavg"
scalar NetK.rte[0].queue[1] qlen:timeavg 2.4796794882364e-005
attr interpolationmode sample-hold
attr title "queue length, timeavg"
scalar NetK.rte[0].queue[1] qlen:max 1
attr interpolationmode sample-hold
attr title "queue length, max"
scalar NetK.rte[0].queue[1] drop:count 0
attr interpolationmode none
attr title "dropped packet byte length, count"
attr unit bytes
scalar NetK.rte[0].queue[1] drop:sum 0
attr interpolationmode none
attr title "dropped packet byte length, sum"
attr unit bytes
statistic NetK.rte[0].queue[2] "drop count"
field count 0
field mean nan
field stddev nan
field min nan
field max nan
field sum 0
field sqrsum 0
bin	-inf	0
bin	0	0
bin	1	0
scalar NetK.rte[0].queue[2] rxBytes:count 12
attr interpolationmode none
attr title "received packet byte length, count"
attr unit bytes
scalar NetK.rte[0].queue[2] rxBytes:sum 18000
attr interpolationmode none
attr title "received packet byte length, sum"
attr unit bytes
statistic NetK.rte[0].queue[2] rxBytes:histogram
field count 12
field mean 1500
field stddev 0
field min 1500
field max 1500
field sum 18000
field sqrsum 27000000
attr interpolationmode none
attr title "received packet byte length, histogram"
attr unit bytes
bin	-inf	0
bin	1499	0
bin	1500	12
bin	1501	0
scalar NetK.rte[0].queue[2] txBytes:count 26
attr interpolationmode none
attr title "transmitting packet byte length, count"
attr unit bytes
scalar NetK.rte[0].queue[2] txBytes:sum 39000
attr interpolationmode none
attr title "transmitting packet byte length, sum"
attr unit bytes
statistic NetK.rte[0].queue[2] txBytes:histogram
field count 26
field mean 1500
field stddev 0
field min 1500
field max 1500
field sum 39000
field sqrsum 58500000
attr interpolationmode none
attr title "transmitting packet byte length, histogram"
attr unit bytes
bin	-inf	0
bin	1499	0
bin	1500	26
bin	1501	0
scalar NetK.rte[0].queue[2] busy:timeavg 0.00032150099747745
attr interpolationmode sample-hold
attr title "server busy state, timeavg"
scalar NetK.rte[0].queue[2] qlen:timeavg 0.00014831912683627
attr interpolationmode sample-hold
attr title "queue length, timeavg"
scalar NetK.rte[0].queue[2] qlen:max 2
attr interpolationmode sample-hold
attr title "queue length, max"
scalar NetK.rte[0].queue[2] drop:count 0
attr interpolationmode none
attr title "dropped packet byte length, count"
attr unit bytes
scalar NetK.rte[0].queue[2] drop:sum 0
attr interpolationmode none
attr title "dropped packet byte length, sum"
attr unit bytes
statistic NetK.rte[0].queue[3] "drop count"
field count 0
field mean nan
field stddev nan
field min nan
field max nan
field sum 0
field sqrsum 0
bin	-inf	0
bin	0	0
bin	1	0
scalar NetK.rte[0].queue[3] rxBytes:count 48
attr interpolationmode none
attr title "received packet byte length, count"
attr unit bytes
scalar NetK.rte[0].queue[3] rxBytes:sum 72000
attr interpolationmode none
attr title "received packet byte length, sum"
attr unit bytes
statistic NetK.rte[0].queue[3] rxBytes:histogram
field count 48
field mean 1500
field stddev 0
field min 1500
field max 1500
field sum 72000
field sqrsum 108000000
attr interpolationmode none
attr title "received packet byte length, histogram"
attr unit bytes
bin	-inf	0
bin	1499	0
bin	1500	48
bin	1501	0
scalar NetK.rte[0].queue[3] txBytes:count 27
attr interpolationmode none
attr title "transmitting packet byte length, count"
attr unit bytes
scalar NetK.rte[0].queue[3] txBytes:sum 40500
attr interpolationmode none
attr title "transmitting packet byte length, sum"
attr unit bytes
statistic NetK.rte[0].queue[3] txBytes:histogram
field count 27
field mean 1500
field stddev 0
field min 1500
field max 1500
field sum 40500
field sqrsum 60750000
attr interpolationmode none
attr title "transmitting packet byte length, histogram"
attr unit bytes
bin	-inf	0
bin	1499	0
bin	1500	27
bin	1501	0
scalar NetK.rte[0].queue[3] busy:timeavg 0.00033386642045736
attr interpolationmode sample-hold
attr title "server busy state, timeavg"
scalar NetK.rte[0].queue[3] qlen:timeavg 1.2365422979902e-005
attr interpolationmode sample-hold
attr title "queue length, timeavg"
scalar NetK.rte[0].queue[3] qlen:max 1
attr interpolationmode sample-hold
attr title "queue length, max"
scalar NetK.rte[0].queue[3] drop:count 0
attr interpolationmode none
attr title "dropped packet byte length, count"
attr unit bytes
scalar NetK.rte[0].queue[3] drop:sum 0
attr interpolationmode none
attr title "dropped packet byte length, sum"
attr unit bytes
statistic NetK.rte[0].queue[4] "drop count"
field count 0
field mean nan
field stddev nan
field min nan
field max nan
field sum 0
field sqrsum 0
bin	-inf	0
bin	0	0
bin	1	0
scalar NetK.rte[0].queue[4] rxBytes:count 29
attr interpolationmode none
attr title "received packet byte length, count"
attr unit bytes
scalar NetK.rte[0].queue[4] rxBytes:sum 43500
attr interpolationmode none
attr title "received packet byte length, sum"
attr unit bytes
statistic NetK.rte[0].queue[4] rxBytes:histogram
field count 29
field mean 1500
field stddev 0
field min 1500
field max 1500
field sum 43500
field sqrsum 65250000
attr interpolationmode none
attr title "received packet byte length, histogram"
attr unit bytes
bin	-inf	0
bin	1499	0
bin	1500	29
bin	1501	0
scalar NetK.rte[0].queue[4] txBytes:count 21
attr interpolationmode none
attr title "transmitting packet byte length, count"
attr unit bytes
scalar NetK.rte[0].queue[4] txBytes:sum 31500
attr interpolationmode none
attr title "transmitting packet byte length, sum"
attr unit bytes
statistic NetK.rte[0].queue[4] txBytes:histogram
field count 21
field mean 1500
field stddev 0
field min 1500
field max 1500
field sum 31500
field sqrsum 47250000
attr interpolationmode none
attr title "transmitting packet byte length, histogram"
attr unit bytes
bin	-inf	0
bin	1499	0
bin	1500	21
bin	1501	0
scalar NetK.rte[0].queue[4] busy:timeavg 0.00025967388257794
attr interpolationmode sample-hold
attr title "server busy state, timeavg"
scalar NetK.rte[0].queue[4] qlen:timeavg 1.2365422979902e-005
attr interpolationmode sample-hold
attr title "queue length, timeavg"
scalar NetK.rte[0].queue[4] qlen:max 1
attr interpolationmode sample-hold
attr title "queue length, max"
scalar NetK.rte[0].queue[4] drop:count 0
attr interpolationmode none
attr title "dropped packet byte length, count"
attr unit bytes
scalar NetK.rte[0].queue[4] drop:sum 0
attr interpolationmode none
attr title "dropped packet byte length, sum"
attr unit bytes
statistic NetK.rte[0].queue[5] "drop count"
field count 0
field mean nan
field stddev nan
field min nan
field max nan
field sum 0
field sqrsum 0
bin	-inf	0
bin	0	0
bin	1	0
scalar NetK.rte[0].queue[5] rxBytes:count 18
attr interpolationmode none
attr title "received packet byte length, count"
attr unit bytes
scalar NetK.rte[0].queue[5] rxBytes:sum 27000
attr interpolationmode none
attr title "received packet byte length, sum"
attr unit bytes
statistic NetK.rte[0].queue[5] rxBytes:histogram
field count 18
field mean 1500
field stddev 0
field min 1500
field max 1500
field sum 27000
field sqrsum 40500000
attr interpolationmode none
attr title "received packet byte length, histogram"
attr unit bytes
bin	-inf	0
bin	1499	0
bin	1500	18
bin	1501	0
scalar NetK.rte[0].queue[5] txBytes:count 60
attr interpolationmode none
attr title "transmitting packet byte length, count"
attr unit bytes
scalar NetK.rte[0].queue[5] txBytes:sum 90000
attr interpolationmode none
attr title "transmitting packet byte length, sum"
attr unit bytes
statistic NetK.rte[0].queue[5] txBytes:histogram
field count 60
field mean 1500
field stddev 0
field min 1500
field max 1500
field sum 90000
field sqrsum 135000000
attr interpolationmode none
attr title "transmitting packet byte length, histogram"
attr unit bytes
bin	-inf	0
bin	1499	0
bin	1500	60
bin	1501	0
scalar NetK.rte[0].queue[5] busy:timeavg 0.00074192537879412
attr interpolationmode sample-hold
attr title "server busy state, timeavg"
scalar NetK.rte[0].queue[5] qlen:timeavg 0.00035859726641716
attr interpolationmode sample-hold
attr title "queue length, timeavg"
scalar NetK.rte[0].queue[5] qlen:max 2
attr interpolationmode sample-hold
attr title "queue length, max"
scalar NetK.rte[0].queue[5] drop:count 0
attr interpolationmode none
attr title "dropped packet byte length, count"
attr unit bytes
scalar NetK.rte[0].queue[5] drop:sum 0
attr interpolationmode none
attr title "dropped packet byte length, sum"
attr unit bytes
scalar NetK.rte[1].app #sent -1.232838371571e+308
scalar NetK.rte[1].app #received -1.2328375147049e+308
statistic NetK.rte[1].app "hop count"
field count 0
field mean nan
field stddev nan
field min nan
field max nan
field sum 0
field sqrsum 0
bin	-inf	0
bin	0	0
bin	1	0
scalar NetK.rte[1].app hopCount:mean nan
attr interpolationmode none
attr title "hop count of arrived packets, mean"
scalar NetK.rte[1].app hopCount:max nan
attr interpolationmode none
attr title "hop count of arrived packets, max"
scalar NetK.rte[1].app hopCount:count 0
attr interpolationmode none
attr title "hop count of arrived packets, count"
statistic NetK.rte[1].app hopCount:histogram
field count 0
field mean nan
field stddev nan
field min nan
field max nan
field sum 0
field sqrsum 0
attr interpolationmode none
attr title "hop count of arrived packets, histogram"
bin	-inf	0
bin	0	0
bin	1	0
scalar NetK.rte[1].app endToEndDelay:mean nan
attr interpolationmode none
attr title "end-to-end delay of arrived packets, mean"
attr unit s
scalar NetK.rte[1].app endToEndDelay:max nan
attr interpolationmode none
attr title "end-to-end delay of arrived packets, max"
attr unit s
scalar NetK.rte[1].app endToEndDelay:count 0
attr interpolationmode none
attr title "end-to-end delay of arrived packets, count"
attr unit s
scalar NetK.rte[1].routing "Terminal Messages dropped due to wrong prediction" 0
statistic NetK.rte[1].routing TopoLinkCounter:histogram
field count 0
field mean nan
field stddev nan
field min nan
field max nan
field sum 0
field sqrsum 0
attr interpolationmode none
attr title "Number of links enabled in Topology, histogram"
bin	-inf	0
bin	0	0
bin	1	0
scalar NetK.rte[1].routing TopoLinkCounter:mean nan
attr interpolationmode none
attr title "Number of links enabled in Topology, mean"
scalar NetK.rte[1].routing TopoLinkCounter:max nan
attr interpolationmode none
attr title "Number of links enabled in Topology, max"
scalar NetK.rte[1].routing TopoLinkCounter:count 0
attr interpolationmode none
attr title "Number of links enabled in Topology, count"
statistic NetK.rte[1].routing outputIf:histogram
field count 0
field mean nan
field stddev nan
field min nan
field max nan
field sum 0
field sqrsum 0
attr interpolationmode none
attr title "output interface for each routed packet, histogram"
bin	-inf	0
bin	0	0
bin	1	0
scalar NetK.rte[1].routing drop:count 0
attr interpolationmode none
attr title "dropped packet byte length, count"
attr unit bytes
scalar NetK.rte[1].routing drop:sum 0
attr interpolationmode none
attr title "dropped packet byte length, sum"
attr unit bytes
statistic NetK.rte[1].routing hopCount:histogram
field count 0
field mean nan
field stddev nan
field min nan
field max nan
field sum 0
field sqrsum 0
attr interpolationmode none
attr title "count number of hops for packet, histogram"
bin	-inf	0
bin	0	0
bin	1	0
scalar NetK.rte[1].routing hopCount:mean nan
attr interpolationmode none
attr title "count number of hops for packet, mean"
scalar NetK.rte[1].routing hopCount:max nan
attr interpolationmode none
attr title "count number of hops for packet, max"
scalar NetK.rte[1].routing hopCount:count 0
attr interpolationmode none
attr title "count number of hops for packet, count"
statistic NetK.rte[1].queue[0] "drop count"
field count 0
field mean nan
field stddev nan
field min nan
field max nan
field sum 0
field sqrsum 0
bin	-inf	0
bin	0	0
bin	1	0
scalar NetK.rte[1].queue[0] rxBytes:count 25
attr interpolationmode none
attr title "received packet byte length, count"
attr unit bytes
scalar NetK.rte[1].queue[0] rxBytes:sum 37500
attr interpolationmode none
attr title "received packet byte length, sum"
attr unit bytes
statistic NetK.rte[1].queue[0] rxBytes:histogram
field count 25
field mean 1500
field stddev 0
field min 1500
field max 1500
field sum 37500
field sqrsum 56250000
attr interpolationmode none
attr title "received packet byte length, histogram"
attr unit bytes
bin	-inf	0
bin	1499	0
bin	1500	25
bin	1501	0
scalar NetK.rte[1].queue[0] txBytes:count 40
attr interpolationmode none
attr title "transmitting packet byte length, count"
attr unit bytes
scalar NetK.rte[1].queue[0] txBytes:sum 60000
attr interpolationmode none
attr title "transmitting packet byte length, sum"
attr unit bytes
statistic NetK.rte[1].queue[0] txBytes:histogram
field count 40
field mean 1500
field stddev 0
field min 1500
field max 1500
field sum 60000
field sqrsum 90000000
attr interpolationmode none
attr title "transmitting packet byte length, histogram"
attr unit bytes
bin	-inf	0
bin	1499	0
bin	1500	40
bin	1501	0
scalar NetK.rte[1].queue[0] busy:timeavg 0.00049461691919608
attr interpolationmode sample-hold
attr title "server busy state, timeavg"
scalar NetK.rte[1].queue[0] qlen:timeavg 3.7030320017147e-005
attr interpolationmode sample-hold
attr title "queue length, timeavg"
scalar NetK.rte[1].queue[0] qlen:max 1
attr interpolationmode sample-hold
attr title "queue length, max"
scalar NetK.rte[1].queue[0] drop:count 0
attr interpolationmode none
attr title "dropped packet byte length, count"
attr unit bytes
scalar NetK.rte[1].queue[0] drop:sum 0
attr interpolationmode none
attr title "dropped packet byte length, sum"
attr unit bytes
statistic NetK.rte[1].queue[1] "drop count"
field count 0
field mean nan
field stddev nan
field min nan
field max nan
field sum 0
field sqrsum 0
bin	-inf	0
bin	0	0
bin	1	0
scalar NetK.rte[1].queue[1] rxBytes:count 34
attr interpolationmode none
attr title "received packet byte length, count"
attr unit bytes
scalar NetK.rte[1].queue[1] rxBytes:sum 51000
attr interpolationmode none
attr title "received packet byte length, sum"
attr unit bytes
statistic NetK.rte[1].queue[1] rxBytes:histogram
field count 34
field mean 1500
field stddev 0
field min 1500
field max 1500
field sum 51000
field sqrsum 76500000
attr interpolationmode none
attr title "received packet byte length, histogram"
attr unit bytes
bin	-inf	0
bin	1499	0
bin	1500	34
bin	1501	0
scalar NetK.rte[1].queue[1] txBytes:count 14
attr interpolationmode none
attr title "transmitting packet byte length, count"
attr unit bytes
scalar NetK.rte[1].queue[1] txBytes:sum 21000
attr interpolationmode none
attr title "transmitting packet byte length, sum"
attr unit bytes
statistic NetK.rte[1].queue[1] txBytes:histogram
field count 14
field mean 1500
field stddev 0
field min 1500
field max 1500
field sum 21000
field sqrsum 31500000
attr interpolationmode none
attr title "transmitting packet byte length, histogram"
attr unit bytes
bin	-inf	0
bin	1499	0
bin	1500	14
bin	1501	0
scalar NetK.rte[1].queue[1] busy:timeavg 0.00017311592171863
attr interpolationmode sample-hold
attr title "server busy state, timeavg"
scalar NetK.rte[1].queue[1] qlen:timeavg 1.2431371902462e-005
attr interpolationmode sample-hold
attr title "queue length, timeavg"
scalar NetK.rte[1].queue[1] qlen:max 1
attr interpolationmode sample-hold
attr title "queue length, max"
scalar NetK.rte[1].queue[1] drop:count 0
attr interpolationmode none
attr title "dropped packet byte length, count"
attr unit bytes
scalar NetK.rte[1].queue[1] drop:sum 0
attr interpolationmode none
attr title "dropped packet byte length, sum"
attr unit bytes
statistic NetK.rte[1].queue[2] "drop count"
field count 0
field mean nan
field stddev nan
field min nan
field max nan
field sum 0
field sqrsum 0
bin	-inf	0
bin	0	0
bin	1	0
scalar NetK.rte[1].queue[2] rxBytes:count 21
attr interpolationmode none
attr title "received packet byte length, count"
attr unit bytes
scalar NetK.rte[1].queue[2] rxBytes:sum 31500
attr interpolationmode none
attr title "received packet byte length, sum"
attr unit bytes
statistic NetK.rte[1].queue[2] rxBytes:histogram
field count 21
field mean 1500
field stddev 0
field min 1500
field max 1500
field sum 31500
field sqrsum 47250000
attr interpolationmode none
attr title "received packet byte length, histogram"
attr unit bytes
bin	-inf	0
bin	1499	0
bin	1500	21
bin	1501	0
scalar NetK.rte[1].queue[2] txBytes:count 11
attr interpolationmode none
attr title "transmitting packet byte length, count"
attr unit bytes
scalar NetK.rte[1].queue[2] txBytes:sum 16500
attr interpolationmode none
attr title "transmitting packet byte length, sum"
attr unit bytes
statistic NetK.rte[1].queue[2] txBytes:histogram
field count 11
field mean 1500
field stddev 0
field min 1500
field max 1500
field sum 16500
field sqrsum 24750000
attr interpolationmode none
attr title "transmitting packet byte length, histogram"
attr unit bytes
bin	-inf	0
bin	1499	0
bin	1500	11
bin	1501	0
scalar NetK.rte[1].queue[2] busy:timeavg 0.00013601965277892
attr interpolationmode sample-hold
attr title "server busy state, timeavg"
scalar NetK.rte[1].queue[2] qlen:timeavg 4.54058331822e-005
attr interpolationmode sample-hold
attr title "queue length, timeavg"
scalar NetK.rte[1].queue[2] qlen:max 2
attr interpolationmode sample-hold
attr title "queue length, max"
scalar NetK.rte[1].queue[2] drop:count 0
attr interpolationmode none
attr title "dropped packet byte length, count"
attr unit bytes
scalar NetK.rte[1].queue[2] drop:sum 0
attr interpolationmode none
attr title "dropped packet byte length, sum"
attr unit bytes
statistic NetK.rte[1].queue[3] "drop count"
field count 0
field mean nan
field stddev nan
field min nan
field max nan
field sum 0
field sqrsum 0
bin	-inf	0
bin	0	0
bin	1	0
scalar NetK.rte[1].queue[3] rxBytes:count 8
attr interpolationmode none
attr title "received packet byte length, count"
attr unit bytes
scalar NetK.rte[1].queue[3] rxBytes:sum 12000
attr interpolationmode none
attr title "received packet byte length, sum"
attr unit bytes
statistic NetK.rte[1].queue[3] rxBytes:histogram
field count 8
field mean 1500
field stddev 0
field min 1500
field max 1500
field sum 12000
field sqrsum 18000000
attr interpolationmode none
attr title "received packet byte length, histogram"
attr unit bytes
bin	-inf	0
bin	1499	0
bin	1500	8
bin	1501	0
scalar NetK.rte[1].queue[3] txBytes:count 23
attr interpolationmode none
attr title "transmitting packet byte length, count"
attr unit bytes
scalar NetK.rte[1].queue[3] txBytes:sum 34500
attr interpolationmode none
attr title "transmitting packet byte length, sum"
attr unit bytes
statistic NetK.rte[1].queue[3] txBytes:histogram
field count 23
field mean 1500
field stddev 0
field min 1500
field max 1500
field sum 34500
field sqrsum 51750000
attr interpolationmode none
attr title "transmitting packet byte length, histogram"
attr unit bytes
bin	-inf	0
bin	1499	0
bin	1500	23
bin	1501	0
scalar NetK.rte[1].queue[3] busy:timeavg 0.00028440472853775
attr interpolationmode sample-hold
attr title "server busy state, timeavg"
scalar NetK.rte[1].queue[3] qlen:timeavg 6.5948922559478e-008
attr interpolationmode sample-hold
attr title "queue length, timeavg"
scalar NetK.rte[1].queue[3] qlen:max 1
attr interpolationmode sample-hold
attr title "queue length, max"
scalar NetK.rte[1].queue[3] drop:count 0
attr interpolationmode none
attr title "dropped packet byte length, count"
attr unit bytes
scalar NetK.rte[1].queue[3] drop:sum 0
attr interpolationmode none
attr title "dropped packet byte length, sum"
attr unit bytes
statistic NetK.rte[1].queue[4] "drop count"
field count 0
field mean nan
field stddev nan
field min nan
field max nan
field sum 0
field sqrsum 0
bin	-inf	0
bin	0	0
bin	1	0
scalar NetK.rte[1].queue[4] rxBytes:count 35
attr interpolationmode none
attr title "received packet byte length, count"
attr unit bytes
scalar NetK.rte[1].queue[4] rxBytes:sum 52500
attr interpolationmode none
attr title "received packet byte length, sum"
attr unit bytes
statistic NetK.rte[1].queue[4] rxBytes:histogram
field count 35
field mean 1500
field stddev 0
field min 1500
field max 1500
field sum 52500
field sqrsum 78750000
attr interpolationmode none
attr title "received packet byte length, histogram"
attr unit bytes
bin	-inf	0
bin	1499	0
bin	1500	35
bin	1501	0
scalar NetK.rte[1].queue[4] txBytes:count 5
attr interpolationmode none
attr title "transmitting packet byte length, count"
attr unit bytes
scalar NetK.rte[1].queue[4] txBytes:sum 7500
attr interpolationmode none
attr title "transmitting packet byte length, sum"
attr unit bytes
statistic NetK.rte[1].queue[4] txBytes:histogram
field count 5
field mean 1500
field stddev 0
field min 1500
field max 1500
field sum 7500
field sqrsum 11250000
attr interpolationmode none
attr title "transmitting packet byte length, histogram"
attr unit bytes
bin	-inf	0
bin	1499	0
bin	1500	5
bin	1501	0
scalar NetK.rte[1].queue[4] busy:timeavg 6.182711489951e-005
attr interpolationmode sample-hold
attr title "server busy state, timeavg"
scalar NetK.rte[1].queue[4] qlen:timeavg 2.4664897037245e-005
attr interpolationmode sample-hold
attr title "queue length, timeavg"
scalar NetK.rte[1].queue[4] qlen:max 1
attr interpolationmode sample-hold
attr title "queue length, max"
scalar NetK.rte[1].queue[4] drop:count 0
attr interpolationmode none
attr title "dropped packet byte length, count"
attr unit bytes
scalar NetK.rte[1].queue[4] drop:sum 0
attr interpolationmode none
attr title "dropped packet byte length, sum"
attr unit bytes
statistic NetK.rte[1].queue[5] "drop count"
field count 0
field mean nan
field stddev nan
field min nan
field max nan
field sum 0
field sqrsum 0
bin	-inf	0
bin	0	0
bin	1	0
scalar NetK.rte[1].queue[5] rxBytes:count 7
attr interpolationmode none
attr title "received packet byte length, count"
attr unit bytes
scalar NetK.rte[1].queue[5] rxBytes:sum 10500
attr interpolationmode none
attr title "received packet byte length, sum"
attr unit bytes
statistic NetK.rte[1].queue[5] rxBytes:histogram
field count 7
field mean 1500
field stddev 0
field min 1500
field max 1500
field sum 10500
field sqrsum 15750000
attr interpolationmode none
attr title "received packet byte length, histogram"
attr unit bytes
bin	-inf	0
bin	1499	0
bin	1500	7
bin	1501	0
scalar NetK.rte[1].queue[5] txBytes:count 30
attr interpolationmode none
attr title "transmitting packet byte length, count"
attr unit bytes
scalar NetK.rte[1].queue[5] txBytes:sum 45000
attr interpolationmode none
attr title "transmitting packet byte length, sum"
attr unit bytes
statistic NetK.rte[1].queue[5] txBytes:histogram
field count 30
field mean 1500
field stddev 0
field min 1500
field max 1500
field sum 45000
field sqrsum 67500000
attr interpolationmode none
attr title "transmitting packet byte length, histogram"
attr unit bytes
bin	-inf	0
bin	1499	0
bin	1500	30
bin	1501	0
scalar NetK.rte[1].queue[5] busy:timeavg 0.00037096268939706
attr interpolationmode sample-hold
attr title "server busy state, timeavg"
scalar NetK.rte[1].queue[5] qlen:timeavg 6.5948922559478e-008
attr interpolationmode sample-hold
attr title "queue length, timeavg"
scalar NetK.rte[1].queue[5] qlen:max 1
attr interpolationmode sample-hold
attr title "queue length, max"
scalar NetK.rte[1].queue[5] drop:count 0
attr interpolationmode none
attr title "dropped packet byte length, count"
attr unit bytes
scalar NetK.rte[1].queue[5] drop:sum 0
attr interpolationmode none
attr title "dropped packet byte length, sum"
attr unit bytes
scalar NetK.rte[2].app #sent -5.6115711278508e+303
scalar NetK.rte[2].app #received -5.6115659162834e+303
statistic NetK.rte[2].app "hop count"
field count 0
field mean nan
field stddev nan
field min nan
field max nan
field sum 0
field sqrsum 0
bin	-inf	0
bin	0	0
bin	1	0
scalar NetK.rte[2].app hopCount:mean nan
attr interpolationmode none
attr title "hop count of arrived packets, mean"
scalar NetK.rte[2].app hopCount:max nan
attr interpolationmode none
attr title "hop count of arrived packets, max"
scalar NetK.rte[2].app hopCount:count 0
attr interpolationmode none
attr title "hop count of arrived packets, count"
statistic NetK.rte[2].app hopCount:histogram
field count 0
field mean nan
field stddev nan
field min nan
field max nan
field sum 0
field sqrsum 0
attr interpolationmode none
attr title "hop count of arrived packets, histogram"
bin	-inf	0
bin	0	0
bin	1	0
scalar NetK.rte[2].app endToEndDelay:mean nan
attr interpolationmode none
attr title "end-to-end delay of arrived packets, mean"
attr unit s
scalar NetK.rte[2].app endToEndDelay:max nan
attr interpolationmode none
attr title "end-to-end delay of arrived packets, max"
attr unit s
scalar NetK.rte[2].app endToEndDelay:count 0
attr interpolationmode none
attr title "end-to-end delay of arrived packets, count"
attr unit s
scalar NetK.rte[2].routing "Terminal Messages dropped due to wrong prediction" 0
statistic NetK.rte[2].routing TopoLinkCounter:histogram
field count 0
field mean nan
field stddev nan
field min nan
field max nan
field sum 0
field sqrsum 0
attr interpolationmode none
attr title "Number of links enabled in Topology, histogram"
bin	-inf	0
bin	0	0
bin	1	0
scalar NetK.rte[2].routing TopoLinkCounter:mean nan
attr interpolationmode none
attr title "Number of links enabled in Topology, mean"
scalar NetK.rte[2].routing TopoLinkCounter:max nan
attr interpolationmode none
attr title "Number of links enabled in Topology, max"
scalar NetK.rte[2].routing TopoLinkCounter:count 0
attr interpolationmode none
attr title "Number of links enabled in Topology, count"
statistic NetK.rte[2].routing outputIf:histogram
field count 0
field mean nan
field stddev nan
field min nan
field max nan
field sum 0
field sqrsum 0
attr interpolationmode none
attr title "output interface for each routed packet, histogram"
bin	-inf	0
bin	0	0
bin	1	0
scalar NetK.rte[2].routing drop:count 0
attr interpolationmode none
attr title "dropped packet byte length, count"
attr unit bytes
scalar NetK.rte[2].routing drop:sum 0
attr interpolationmode none
attr title "dropped packet byte length, sum"
attr unit bytes
statistic NetK.rte[2].routing hopCount:histogram
field count 0
field mean nan
field stddev nan
field min nan
field max nan
field sum 0
field sqrsum 0
attr interpolationmode none
attr title "count number of hops for packet, histogram"
bin	-inf	0
bin	0	0
bin	1	0
scalar NetK.rte[2].routing hopCount:mean nan
attr interpolationmode none
attr title "count number of hops for packet, mean"
scalar NetK.rte[2].routing hopCount:max nan
attr interpolationmode none
attr title "count number of hops for packet, max"
scalar NetK.rte[2].routing hopCount:count 0
attr interpolationmode none
attr title "count number of hops for packet, count"
statistic NetK.rte[2].queue[0] "drop count"
field count 0
field mean nan
field stddev nan
field min nan
field max nan
field sum 0
field sqrsum 0
bin	-inf	0
bin	0	0
bin	1	0
scalar NetK.rte[2].queue[0] rxBytes:count 14
attr interpolationmode none
attr title "received packet byte length, count"
attr unit bytes
scalar NetK.rte[2].queue[0] rxBytes:sum 21000
attr interpolationmode none
attr title "received packet byte length, sum"
attr unit bytes
statistic NetK.rte[2].queue[0] rxBytes:histogram
field count 14
field mean 1500
field stddev 0
field min 1500
field max 1500
field sum 21000
field sqrsum 31500000
attr interpolationmode none
attr title "received packet byte length, histogram"
attr unit bytes
bin	-inf	0
bin	1499	0
bin	1500	14
bin	1501	0
scalar NetK.rte[2].queue[0] txBytes:count 34
attr interpolationmode none
attr title "transmitting packet byte length, count"
attr unit bytes
scalar NetK.rte[2].queue[0] txBytes:sum 51000
attr interpolationmode none
attr title "transmitting packet byte length, sum"
attr unit bytes
statistic NetK.rte[2].queue[0] txBytes:histogram
field count 34
field mean 1500
field stddev 0
field min 1500
field max 1500
field sum 51000
field sqrsum 76500000
attr interpolationmode none
attr title "transmitting packet byte length, histogram"
attr unit bytes
bin	-inf	0
bin	1499	0
bin	1500	34
bin	1501	0
scalar NetK.rte[2].queue[0] busy:timeavg 0.00042042438131667
attr interpolationmode sample-hold
attr title "server busy state, timeavg"
scalar NetK.rte[2].queue[0] qlen:timeavg 2.4664897037245e-005
attr interpolationmode sample-hold
attr title "queue length, timeavg"
scalar NetK.rte[2].queue[0] qlen:max 1
attr interpolationmode sample-hold
attr title "queue length, max"
scalar NetK.rte[2].queue[0] drop:count 0
attr interpolationmode none
attr title "dropped packet byte length, count"
attr unit bytes
scalar NetK.rte[2].queue[0] drop:sum 0
attr interpolationmode none
attr title "dropped packet byte length, sum"
attr unit bytes
statistic NetK.rte[2].queue[1] "drop count"
field count 0
field mean nan
field stddev nan
field min nan
field max nan
field sum 0
field sqrsum 0
bin	-inf	0
bin	0	0
bin	1	0
scalar NetK.rte[2].queue[1] rxBytes:count 44
attr interpolationmode none
attr title "received packet byte length, count"
attr unit bytes
scalar NetK.rte[2].queue[1] rxBytes:sum 66000
attr interpolationmode none
attr title "received packet byte length, sum"
attr unit bytes
statistic NetK.rte[2].queue[1] rxBytes:histogram
field count 44
field mean 1500
field stddev 0
field min 1500
field max 1500
field sum 66000
field sqrsum 99000000
attr interpolationmode none
attr title "received packet byte length, histogram"
attr unit bytes
bin	-inf	0
bin	1499	0
bin	1500	44
bin	1501	0
scalar NetK.rte[2].queue[1] txBytes:count 36
attr interpolationmode none
attr title "transmitting packet byte length, count"
attr unit bytes
scalar NetK.rte[2].queue[1] txBytes:sum 54000
attr interpolationmode none
attr title "transmitting packet byte length, sum"
attr unit bytes
statistic NetK.rte[2].queue[1] txBytes:histogram
field count 36
field mean 1500
field stddev 0
field min 1500
field max 1500
field sum 54000
field sqrsum 81000000
attr interpolationmode none
attr title "transmitting packet byte length, histogram"
attr unit bytes
bin	-inf	0
bin	1499	0
bin	1500	36
bin	1501	0
scalar NetK.rte[2].queue[1] busy:timeavg 0.00044515522727647
attr interpolationmode sample-hold
attr title "server busy state, timeavg"
scalar NetK.rte[2].queue[1] qlen:timeavg 0
attr interpolationmode sample-hold
attr title "queue length, timeavg"
scalar NetK.rte[2].queue[1] qlen:max 0
attr interpolationmode sample-hold
attr title "queue length, max"
scalar NetK.rte[2].queue[1] drop:count 0
attr interpolationmode none
attr title "dropped packet byte length, count"
attr unit bytes
scalar NetK.rte[2].queue[1] drop:sum 0
attr interpolationmode none
attr title "dropped packet byte length, sum"
attr unit bytes
statistic NetK.rte[2].queue[2] "drop count"
field count 0
field mean nan
field stddev nan
field min nan
field max nan
field sum 0
field sqrsum 0
bin	-inf	0
bin	0	0
bin	1	0
scalar NetK.rte[2].queue[2] rxBytes:count 18
attr interpolationmode none
attr title "received packet byte length, count"
attr unit bytes
scalar NetK.rte[2].queue[2] rxBytes:sum 27000
attr interpolationmode none
attr title "received packet byte length, sum"
attr unit bytes
statistic NetK.rte[2].queue[2] rxBytes:histogram
field count 18
field mean 1500
field stddev 0
field min 1500
field max 1500
field sum 27000
field sqrsum 40500000
attr interpolationmode none
attr title "received packet byte length, histogram"
attr unit bytes
bin	-inf	0
bin	1499	0
bin	1500	18
bin	1501	0
scalar NetK.rte[2].queue[2] txBytes:count 37
attr interpolationmode none
attr title "transmitting packet byte length, count"
attr unit bytes
scalar NetK.rte[2].queue[2] txBytes:sum 55500
attr interpolationmode none
attr title "transmitting packet byte length, sum"
attr unit bytes
statistic NetK.rte[2].queue[2] txBytes:histogram
field count 37
field mean 1500
field stddev 0
field min 1500
field max 1500
field sum 55500
field sqrsum 83250000
attr interpolationmode none
attr title "transmitting packet byte length, histogram"
attr unit bytes
bin	-inf	0
bin	1499	0
bin	1500	37
bin	1501	0
scalar NetK.rte[2].queue[2] busy:timeavg 0.00045752065025638
attr interpolationmode sample-hold
attr title "server busy state, timeavg"
scalar NetK.rte[2].queue[2] qlen:timeavg 1.2365422979902e-005
attr interpolationmode sample-hold
attr title "queue length, timeavg"
scalar NetK.rte[2].queue[2] qlen:max 1
attr interpolationmode sample-hold
attr title "queue length, max"
scalar NetK.rte[2].queue[2] drop:count 0
attr interpolationmode none
attr title "dropped packet byte length, count"
attr unit bytes
scalar NetK.rte[2].queue[2] drop:sum 0
attr interpolationmode none
attr title "dropped packet byte length, sum"
attr unit bytes
statistic NetK.rte[2].queue[3] "drop count"
field count 0
field mean nan
field stddev nan
field min nan
field max nan
field sum 0
field sqrsum 0
bin	-inf	0
bin	0	0
bin	1	0
scalar NetK.rte[2].queue[3] rxBytes:count 19
attr interpolationmode none
attr title "received packet byte length, count"
attr unit bytes
scalar NetK.rte[2].queue[3] rxBytes:sum 28500
attr interpolationmode none
attr title "received packet byte length, sum"
attr unit bytes
statistic NetK.rte[2].queue[3] rxBytes:histogram
field count 19
field mean 1500
field stddev 0
field min 1500
field max 1500
field sum 28500
field sqrsum 42750000
attr interpolationmode none
attr title "received packet byte length, histogram"
attr unit bytes
bin	-inf	0
bin	1499	0
bin	1500	19
bin	1501	0
scalar NetK.rte[2].queue[3] txBytes:count 12
attr interpolationmode none
attr title "transmitting packet byte length, count"
attr unit bytes
scalar NetK.rte[2].queue[3] txBytes:sum 18000
attr interpolationmode none
attr title "transmitting packet byte length, sum"
attr unit bytes
statistic NetK.rte[2].queue[3] txBytes:histogram
field count 12
field mean 1500
field stddev 0
field min 1500
field max 1500
field sum 18000
field sqrsum 27000000
attr interpolationmode none
attr title "transmitting packet byte length, histogram"
attr unit bytes
bin	-inf	0
bin	1499	0
bin	1500	12
bin	1501	0
scalar NetK.rte[2].queue[3] busy:timeavg 0.00014838507575882
attr interpolationmode sample-hold
attr title "server busy state, timeavg"
scalar NetK.rte[2].queue[3] qlen:timeavg 1.2365422979902e-005
attr interpolationmode sample-hold
attr title "queue length, timeavg"
scalar NetK.rte[2].queue[3] qlen:max 1
attr interpolationmode sample-hold
attr title "queue length, max"
scalar NetK.rte[2].queue[3] drop:count 0
attr interpolationmode none
attr title "dropped packet byte length, count"
attr unit bytes
scalar NetK.rte[2].queue[3] drop:sum 0
attr interpolationmode none
attr title "dropped packet byte length, sum"
attr unit bytes
statistic NetK.rte[2].queue[4] "drop count"
field count 0
field mean nan
field stddev nan
field min nan
field max nan
field sum 0
field sqrsum 0
bin	-inf	0
bin	0	0
bin	1	0
scalar NetK.rte[2].queue[4] rxBytes:count 20
attr interpolationmode none
attr title "received packet byte length, count"
attr unit bytes
scalar NetK.rte[2].queue[4] rxBytes:sum 30000
attr interpolationmode none
attr title "received packet byte length, sum"
attr unit bytes
statistic NetK.rte[2].queue[4] rxBytes:histogram
field count 20
field mean 1500
field stddev 0
field min 1500
field max 1500
field sum 30000
field sqrsum 45000000
attr interpolationmode none
attr title "received packet byte length, histogram"
attr unit bytes
bin	-inf	0
bin	1499	0
bin	1500	20
bin	1501	0
scalar NetK.rte[2].queue[4] txBytes:count 13
attr interpolationmode none
attr title "transmitting packet byte length, count"
attr unit bytes
scalar NetK.rte[2].queue[4] txBytes:sum 19500
attr interpolationmode none
attr title "transmitting packet byte length, sum"
attr unit bytes
statistic NetK.rte[2].queue[4] txBytes:histogram
field count 13
field mean 1500
field stddev 0
field min 1500
field max 1500
field sum 19500
field sqrsum 29250000
attr interpolationmode none
attr title "transmitting packet byte length, histogram"
attr unit bytes
bin	-inf	0
bin	1499	0
bin	1500	13
bin	1501	0
scalar NetK.rte[2].queue[4] busy:timeavg 0.00016075049873873
attr interpolationmode sample-hold
attr title "server busy state, timeavg"
scalar NetK.rte[2].queue[4] qlen:timeavg 1.2365422979902e-005
attr interpolationmode sample-hold
attr title "queue length, timeavg"
scalar NetK.rte[2].queue[4] qlen:max 1
attr interpolationmode sample-hold
attr title "queue length, max"
scalar NetK.rte[2].queue[4] drop:count 0
attr interpolationmode none
attr title "dropped packet byte length, count"
attr unit bytes
scalar NetK.rte[2].queue[4] drop:sum 0
attr interpolationmode none
attr title "dropped packet byte length, sum"
attr unit bytes
statistic NetK.rte[2].queue[5] "drop count"
field count 0
field mean nan
field stddev nan
field min nan
field max nan
field sum 0
field sqrsum 0
bin	-inf	0
bin	0	0
bin	1	0
scalar NetK.rte[2].queue[5] rxBytes:count 24
attr interpolationmode none
attr title "received packet byte length, count"
attr unit bytes
scalar NetK.rte[2].queue[5] rxBytes:sum 36000
attr interpolationmode none
attr title "received packet byte length, sum"
attr unit bytes
statistic NetK.rte[2].queue[5] rxBytes:histogram
field count 24
field mean 1500
field stddev 0
field min 1500
field max 1500
field sum 36000
field sqrsum 54000000
attr interpolationmode none
attr title "received packet byte length, histogram"
attr unit bytes
bin	-inf	0
bin	1499	0
bin	1500	24
bin	1501	0
scalar NetK.rte[2].queue[5] txBytes:count 37
attr interpolationmode none
attr title "transmitting packet byte length, count"
attr unit bytes
scalar NetK.rte[2].queue[5] txBytes:sum 55500
attr interpolationmode none
attr title "transmitting packet byte length, sum"
attr unit bytes
statistic NetK.rte[2].queue[5] txBytes:histogram
field count 37
field mean 1500
field stddev 0
field min 1500
field max 1500
field sum 55500
field sqrsum 83250000
attr interpolationmode none
attr title "transmitting packet byte length, histogram"
attr unit bytes
bin	-inf	0
bin	1499	0
bin	1500	37
bin	1501	0
scalar NetK.rte[2].queue[5] busy:timeavg 0.00045752065025638
attr interpolationmode sample-hold
attr title "server busy state, timeavg"
scalar NetK.rte[2].queue[5] qlen:timeavg 1.2365422979902e-005
attr interpolationmode sample-hold
attr title "queue length, timeavg"
scalar NetK.rte[2].queue[5] qlen:max 1
attr interpolationmode sample-hold
attr title "queue length, max"
scalar NetK.rte[2].queue[5] drop:count 0
attr interpolationmode none
attr title "dropped packet byte length, count"
attr unit bytes
scalar NetK.rte[2].queue[5] drop:sum 0
attr interpolationmode none
attr title "dropped packet byte length, sum"
attr unit bytes
scalar NetK.rte[3].app #sent -5.3094322965193e+307
scalar NetK.rte[3].app #received -5.3094280134342e+307
statistic NetK.rte[3].app "hop count"
field count 0
field mean nan
field stddev nan
field min nan
field max nan
field sum 0
field sqrsum 0
bin	-inf	0
bin	0	0
bin	1	0
scalar NetK.rte[3].app hopCount:mean nan
attr interpolationmode none
attr title "hop count of arrived packets, mean"
scalar NetK.rte[3].app hopCount:max nan
attr interpolationmode none
attr title "hop count of arrived packets, max"
scalar NetK.rte[3].app hopCount:count 0
attr interpolationmode none
attr title "hop count of arrived packets, count"
statistic NetK.rte[3].app hopCount:histogram
field count 0
field mean nan
field stddev nan
field min nan
field max nan
field sum 0
field sqrsum 0
attr interpolationmode none
attr title "hop count of arrived packets, histogram"
bin	-inf	0
bin	0	0
bin	1	0
scalar NetK.rte[3].app endToEndDelay:mean nan
attr interpolationmode none
attr title "end-to-end delay of arrived packets, mean"
attr unit s
scalar NetK.rte[3].app endToEndDelay:max nan
attr interpolationmode none
attr title "end-to-end delay of arrived packets, max"
attr unit s
scalar NetK.rte[3].app endToEndDelay:count 0
attr interpolationmode none
attr title "end-to-end delay of arrived packets, count"
attr unit s
scalar NetK.rte[3].routing "Terminal Messages dropped due to wrong prediction" 0
statistic NetK.rte[3].routing TopoLinkCounter:histogram
field count 0
field mean nan
field stddev nan
field min nan
field max nan
field sum 0
field sqrsum 0
attr interpolationmode none
attr title "Number of links enabled in Topology, histogram"
bin	-inf	0
bin	0	0
bin	1	0
scalar NetK.rte[3].routing TopoLinkCounter:mean nan
attr interpolationmode none
attr title "Number of links enabled in Topology, mean"
scalar NetK.rte[3].routing TopoLinkCounter:max nan
attr interpolationmode none
attr title "Number of links enabled in Topology, max"
scalar NetK.rte[3].routing TopoLinkCounter:count 0
attr interpolationmode none
attr title "Number of links enabled in Topology, count"
statistic NetK.rte[3].routing outputIf:histogram
field count 0
field mean nan
field stddev nan
field min nan
field max nan
field sum 0
field sqrsum 0
attr interpolationmode none
attr title "output interface for each routed packet, histogram"
bin	-inf	0
bin	0	0
bin	1	0
scalar NetK.rte[3].routing drop:count 0
attr interpolationmode none
attr title "dropped packet byte length, count"
attr unit bytes
scalar NetK.rte[3].routing drop:sum 0
attr interpolationmode none
attr title "dropped packet byte length, sum"
attr unit bytes
statistic NetK.rte[3].routing hopCount:histogram
field count 0
field mean nan
field stddev nan
field min nan
field max nan
field sum 0
field sqrsum 0
attr interpolationmode none
attr title "count number of hops for packet, histogram"
bin	-inf	0
bin	0	0
bin	1	0
scalar NetK.rte[3].routing hopCount:mean nan
attr interpolationmode none
attr title "count number of hops for packet, mean"
scalar NetK.rte[3].routing hopCount:max nan
attr interpolationmode none
attr title "count number of hops for packet, max"
scalar NetK.rte[3].routing hopCount:count 0
attr interpolationmode none
attr title "count number of hops for packet, count"
statistic NetK.rte[3].queue[0] "drop count"
field count 0
field mean nan
field stddev nan
field min nan
field max nan
field sum 0
field sqrsum 0
bin	-inf	0
bin	0	0
bin	1	0
scalar NetK.rte[3].queue[0] rxBytes:count 36
attr interpolationmode none
attr title "received packet byte length, count"
attr unit bytes
scalar NetK.rte[3].queue[0] rxBytes:sum 54000
attr interpolationmode none
attr title "received packet byte length, sum"
attr unit bytes
statistic NetK.rte[3].queue[0] rxBytes:histogram
field count 36
field mean 1500
field stddev 0
field min 1500
field max 1500
field sum 54000
field sqrsum 81000000
attr interpolationmode none
attr title "received packet byte length, histogram"
attr unit bytes
bin	-inf	0
bin	1499	0
bin	1500	36
bin	1501	0
scalar NetK.rte[3].queue[0] txBytes:count 44
attr interpolationmode none
attr title "transmitting packet byte length, count"
attr unit bytes
scalar NetK.rte[3].queue[0] txBytes:sum 66000
attr interpolationmode none
attr title "transmitting packet byte length, sum"
attr unit bytes
statistic NetK.rte[3].queue[0] txBytes:histogram
field count 44
field mean 1500
field stddev 0
field min 1500
field max 1500
field sum 66000
field sqrsum 99000000
attr interpolationmode none
attr title "transmitting packet byte length, histogram"
attr unit bytes
bin	-inf	0
bin	1499	0
bin	1500	44
bin	1501	0
scalar NetK.rte[3].queue[0] busy:timeavg 0.00054407861111569
attr interpolationmode sample-hold
attr title "server busy state, timeavg"
scalar NetK.rte[3].queue[0] qlen:timeavg 0
attr interpolationmode sample-hold
attr title "queue length, timeavg"
scalar NetK.rte[3].queue[0] qlen:max 0
attr interpolationmode sample-hold
attr title "queue length, max"
scalar NetK.rte[3].queue[0] drop:count 0
attr interpolationmode none
attr title "dropped packet byte length, count"
attr unit bytes
scalar NetK.rte[3].queue[0] drop:sum 0
attr interpolationmode none
attr title "dropped packet byte length, sum"
attr unit bytes
statistic NetK.rte[3].queue[1] "drop count"
field count 0
field mean nan
field stddev nan
field min nan
field max nan
field sum 0
field sqrsum 0
bin	-inf	0
bin	0	0
bin	1	0
scalar NetK.rte[3].queue[1] rxBytes:count 15
attr interpolationmode none
attr title "received packet byte length, count"
attr unit bytes
scalar NetK.rte[3].queue[1] rxBytes:sum 22500
attr interpolationmode none
attr title "received packet byte length, sum"
attr unit bytes
statistic NetK.rte[3].queue[1] rxBytes:histogram
field count 15
field mean 1500
field stddev 0
field min 1500
field max 1500
field sum 22500
field sqrsum 33750000
attr interpolationmode none
attr title "received packet byte length, histogram"
attr unit bytes
bin	-inf	0
bin	1499	0
bin	1500	15
bin	1501	0
scalar NetK.rte[3].queue[1] txBytes:count 20
attr interpolationmode none
attr title "transmitting packet byte length, count"
attr unit bytes
scalar NetK.rte[3].queue[1] txBytes:sum 30000
attr interpolationmode none
attr title "transmitting packet byte length, sum"
attr unit bytes
statistic NetK.rte[3].queue[1] txBytes:histogram
field count 20
field mean 1500
field stddev 0
field min 1500
field max 1500
field sum 30000
field sqrsum 45000000
attr interpolationmode none
attr title "transmitting packet byte length, histogram"
attr unit bytes
bin	-inf	0
bin	1499	0
bin	1500	20
bin	1501	0
scalar NetK.rte[3].queue[1] busy:timeavg 0.00024730845959804
attr interpolationmode sample-hold
attr title "server busy state, timeavg"
scalar NetK.rte[3].queue[1] qlen:timeavg 0.00011122285789656
attr interpolationmode sample-hold
attr title "queue length, timeavg"
scalar NetK.rte[3].queue[1] qlen:max 2
attr interpolationmode sample-hold
attr title "queue length, max"
scalar NetK.rte[3].queue[1] drop:count 0
attr interpolationmode none
attr title "dropped packet byte length, count"
attr unit bytes
scalar NetK.rte[3].queue[1] drop:sum 0
attr interpolationmode none
attr title "dropped packet byte length, sum"
attr unit bytes
statistic NetK.rte[3].queue[2] "drop count"
field count 0
field mean nan
field stddev nan
field min nan
field max nan
field sum 0
field sqrsum 0
bin	-inf	0
bin	0	0
bin	1	0
scalar NetK.rte[3].queue[2] rxBytes:count 168
attr interpolationmode none
attr title "received packet byte length, count"
attr unit bytes
scalar NetK.rte[3].queue[2] rxBytes:sum 252000
attr interpolationmode none
attr title "received packet byte length, sum"
attr unit bytes
statistic NetK.rte[3].queue[2] rxBytes:histogram
field count 168
field mean 1500
field stddev 0
field min 1500
field max 1500
field sum 252000
field sqrsum 378000000
attr interpolationmode none
attr title "received packet byte length, histogram"
attr unit bytes
bin	-inf	0
bin	1499	0
bin	1500	168
bin	1501	0
scalar NetK.rte[3].queue[2] txBytes:count 17
attr interpolationmode none
attr title "transmitting packet byte length, count"
attr unit bytes
scalar NetK.rte[3].queue[2] txBytes:sum 25500
attr interpolationmode none
attr title "transmitting packet byte length, sum"
attr unit bytes
statistic NetK.rte[3].queue[2] txBytes:histogram
field count 17
field mean 1500
field stddev 0
field min 1500
field max 1500
field sum 25500
field sqrsum 38250000
attr interpolationmode none
attr title "transmitting packet byte length, histogram"
attr unit bytes
bin	-inf	0
bin	1499	0
bin	1500	17
bin	1501	0
scalar NetK.rte[3].queue[2] busy:timeavg 0.00021021219065834
attr interpolationmode sample-hold
attr title "server busy state, timeavg"
scalar NetK.rte[3].queue[2] qlen:timeavg 8.6492011936755e-005
attr interpolationmode sample-hold
attr title "queue length, timeavg"
scalar NetK.rte[3].queue[2] qlen:max 2
attr interpolationmode sample-hold
attr title "queue length, max"
scalar NetK.rte[3].queue[2] drop:count 0
attr interpolationmode none
attr title "dropped packet byte length, count"
attr unit bytes
scalar NetK.rte[3].queue[2] drop:sum 0
attr interpolationmode none
attr title "dropped packet byte length, sum"
attr unit bytes
statistic NetK.rte[3].queue[3] "drop count"
field count 0
field mean nan
field stddev nan
field min nan
field max nan
field sum 0
field sqrsum 0
bin	-inf	0
bin	0	0
bin	1	0
scalar NetK.rte[3].queue[3] rxBytes:count 38
attr interpolationmode none
attr title "received packet byte length, count"
attr unit bytes
scalar NetK.rte[3].queue[3] rxBytes:sum 57000
attr interpolationmode none
attr title "received packet byte length, sum"
attr unit bytes
statistic NetK.rte[3].queue[3] rxBytes:histogram
field count 38
field mean 1500
field stddev 0
field min 1500
field max 1500
field sum 57000
field sqrsum 85500000
attr interpolationmode none
attr title "received packet byte length, histogram"
attr unit bytes
bin	-inf	0
bin	1499	0
bin	1500	38
bin	1501	0
scalar NetK.rte[3].queue[3] txBytes:count 12
attr interpolationmode none
attr title "transmitting packet byte length, count"
attr unit bytes
scalar NetK.rte[3].queue[3] txBytes:sum 18000
attr interpolationmode none
attr title "transmitting packet byte length, sum"
attr unit bytes
statistic NetK.rte[3].queue[3] txBytes:histogram
field count 12
field mean 1500
field stddev 0
field min 1500
field max 1500
field sum 18000
field sqrsum 27000000
attr interpolationmode none
attr title "transmitting packet byte length, histogram"
attr unit bytes
bin	-inf	0
bin	1499	0
bin	1500	12
bin	1501	0
scalar NetK.rte[3].queue[3] busy:timeavg 0.00014838507575882
attr interpolationmode sample-hold
attr title "server busy state, timeavg"
scalar NetK.rte[3].queue[3] qlen:timeavg 6.1761165976951e-005
attr interpolationmode sample-hold
attr title "queue length, timeavg"
scalar NetK.rte[3].queue[3] qlen:max 2
attr interpolationmode sample-hold
attr title "queue length, max"
scalar NetK.rte[3].queue[3] drop:count 0
attr interpolationmode none
attr title "dropped packet byte length, count"
attr unit bytes
scalar NetK.rte[3].queue[3] drop:sum 0
attr interpolationmode none
attr title "dropped packet byte length, sum"
attr unit bytes
statistic NetK.rte[3].queue[4] "drop count"
field count 0
field mean nan
field stddev nan
field min nan
field max nan
field sum 0
field sqrsum 0
bin	-inf	0
bin	0	0
bin	1	0
scalar NetK.rte[3].queue[4] rxBytes:count 15
attr interpolationmode none
attr title "received packet byte length, count"
attr unit bytes
scalar NetK.rte[3].queue[4] rxBytes:sum 22500
attr interpolationmode none
attr title "received packet byte length, sum"
attr unit bytes
statistic NetK.rte[3].queue[4] rxBytes:histogram
field count 15
field mean 1500
field stddev 0
field min 1500
field max 1500
field sum 22500
field sqrsum 33750000
attr interpolationmode none
attr title "received packet byte length, histogram"
attr unit bytes
bin	-inf	0
bin	1499	0
bin	1500	15
bin	1501	0
scalar NetK.rte[3].queue[4] txBytes:count 32
attr interpolationmode none
attr title "transmitting packet byte length, count"
attr unit bytes
scalar NetK.rte[3].queue[4] txBytes:sum 48000
attr interpolationmode none
attr title "transmitting packet byte length, sum"
attr unit bytes
statistic NetK.rte[3].queue[4] txBytes:histogram
field count 32
field mean 1500
field stddev 0
field min 1500
field max 1500
field sum 48000
field sqrsum 72000000
attr interpolationmode none
attr title "transmitting packet byte length, histogram"
attr unit bytes
bin	-inf	0
bin	1499	0
bin	1500	32
bin	1501	0
scalar NetK.rte[3].queue[4] busy:timeavg 0.00039569353535687
attr interpolationmode sample-hold
attr title "server busy state, timeavg"
scalar NetK.rte[3].queue[4] qlen:timeavg 0.00040387120175424
attr interpolationmode sample-hold
attr title "queue length, timeavg"
scalar NetK.rte[3].queue[4] qlen:max 2
attr interpolationmode sample-hold
attr title "queue length, max"
scalar NetK.rte[3].queue[4] drop:count 0
attr interpolationmode none
attr title "dropped packet byte length, count"
attr unit bytes
scalar NetK.rte[3].queue[4] drop:sum 0
attr interpolationmode none
attr title "dropped packet byte length, sum"
attr unit bytes
statistic NetK.rte[3].queue[5] "drop count"
field count 0
field mean nan
field stddev nan
field min nan
field max nan
field sum 0
field sqrsum 0
bin	-inf	0
bin	0	0
bin	1	0
scalar NetK.rte[3].queue[5] rxBytes:count 18
attr interpolationmode none
attr title "received packet byte length, count"
attr unit bytes
scalar NetK.rte[3].queue[5] rxBytes:sum 27000
attr interpolationmode none
attr title "received packet byte length, sum"
attr unit bytes
statistic NetK.rte[3].queue[5] rxBytes:histogram
field count 18
field mean 1500
field stddev 0
field min 1500
field max 1500
field sum 27000
field sqrsum 40500000
attr interpolationmode none
attr title "received packet byte length, histogram"
attr unit bytes
bin	-inf	0
bin	1499	0
bin	1500	18
bin	1501	0
scalar NetK.rte[3].queue[5] txBytes:count 175
attr interpolationmode none
attr title "transmitting packet byte length, count"
attr unit bytes
scalar NetK.rte[3].queue[5] txBytes:sum 262500
attr interpolationmode none
attr title "transmitting packet byte length, sum"
attr unit bytes
statistic NetK.rte[3].queue[5] txBytes:histogram
field count 175
field mean 1500
field stddev 0
field min 1500
field max 1500
field sum 262500
field sqrsum 393750000
attr interpolationmode none
attr title "transmitting packet byte length, histogram"
attr unit bytes
bin	-inf	0
bin	1499	0
bin	1500	175
bin	1501	0
scalar NetK.rte[3].queue[5] busy:timeavg 0.0021639490214829
attr interpolationmode sample-hold
attr title "server busy state, timeavg"
scalar NetK.rte[3].queue[5] qlen:timeavg 0.00030906962557499
attr interpolationmode sample-hold
attr title "queue length, timeavg"
scalar NetK.rte[3].queue[5] qlen:max 2
attr interpolationmode sample-hold
attr title "queue length, max"
scalar NetK.rte[3].queue[5] drop:count 0
attr interpolationmode none
attr title "dropped packet byte length, count"
attr unit bytes
scalar NetK.rte[3].queue[5] drop:sum 0
attr interpolationmode none
attr title "dropped packet byte length, sum"
attr unit bytes
scalar NetK.rte[4].app #sent -5.3094322965193e+307
scalar NetK.rte[4].app #received -5.3094280134342e+307
statistic NetK.rte[4].app "hop count"
field count 0
field mean nan
field stddev nan
field min nan
field max nan
field sum 0
field sqrsum 0
bin	-inf	0
bin	0	0
bin	1	0
scalar NetK.rte[4].app hopCount:mean nan
attr interpolationmode none
attr title "hop count of arrived packets, mean"
scalar NetK.rte[4].app hopCount:max nan
attr interpolationmode none
attr title "hop count of arrived packets, max"
scalar NetK.rte[4].app hopCount:count 0
attr interpolationmode none
attr title "hop count of arrived packets, count"
statistic NetK.rte[4].app hopCount:histogram
field count 0
field mean nan
field stddev nan
field min nan
field max nan
field sum 0
field sqrsum 0
attr interpolationmode none
attr title "hop count of arrived packets, histogram"
bin	-inf	0
bin	0	0
bin	1	0
scalar NetK.rte[4].app endToEndDelay:mean nan
attr interpolationmode none
attr title "end-to-end delay of arrived packets, mean"
attr unit s
scalar NetK.rte[4].app endToEndDelay:max nan
attr interpolationmode none
attr title "end-to-end delay of arrived packets, max"
attr unit s
scalar NetK.rte[4].app endToEndDelay:count 0
attr interpolationmode none
attr title "end-to-end delay of arrived packets, count"
attr unit s
scalar NetK.rte[4].routing "Terminal Messages dropped due to wrong prediction" 0
statistic NetK.rte[4].routing TopoLinkCounter:histogram
field count 0
field mean nan
field stddev nan
field min nan
field max nan
field sum 0
field sqrsum 0
attr interpolationmode none
attr title "Number of links enabled in Topology, histogram"
bin	-inf	0
bin	0	0
bin	1	0
scalar NetK.rte[4].routing TopoLinkCounter:mean nan
attr interpolationmode none
attr title "Number of links enabled in Topology, mean"
scalar NetK.rte[4].routing TopoLinkCounter:max nan
attr interpolationmode none
attr title "Number of links enabled in Topology, max"
scalar NetK.rte[4].routing TopoLinkCounter:count 0
attr interpolationmode none
attr title "Number of links enabled in Topology, count"
statistic NetK.rte[4].routing outputIf:histogram
field count 0
field mean nan
field stddev nan
field min nan
field max nan
field sum 0
field sqrsum 0
attr interpolationmode none
attr title "output interface for each routed packet, histogram"
bin	-inf	0
bin	0	0
bin	1	0
scalar NetK.rte[4].routing drop:count 0
attr interpolationmode none
attr title "dropped packet byte length, count"
attr unit bytes
scalar NetK.rte[4].routing drop:sum 0
attr interpolationmode none
attr title "dropped packet byte length, sum"
attr unit bytes
statistic NetK.rte[4].routing hopCount:histogram
field count 0
field mean nan
field stddev nan
field min nan
field max nan
field sum 0
field sqrsum 0
attr interpolationmode none
attr title "count number of hops for packet, histogram"
bin	-inf	0
bin	0	0
bin	1	0
scalar NetK.rte[4].routing hopCount:mean nan
attr interpolationmode none
attr title "count number of hops for packet, mean"
scalar NetK.rte[4].routing hopCount:max nan
attr interpolationmode none
attr title "count number of hops for packet, max"
scalar NetK.rte[4].routing hopCount:count 0
attr interpolationmode none
attr title "count number of hops for packet, count"
statistic NetK.rte[4].queue[0] "drop count"
field count 0
field mean nan
field stddev nan
field min nan
field max nan
field sum 0
field sqrsum 0
bin	-inf	0
bin	0	0
bin	1	0
scalar NetK.rte[4].queue[0] rxBytes:count 20
attr interpolationmode none
attr title "received packet byte length, count"
attr unit bytes
scalar NetK.rte[4].queue[0] rxBytes:sum 30000
attr interpolationmode none
attr title "received packet byte length, sum"
attr unit bytes
statistic NetK.rte[4].queue[0] rxBytes:histogram
field count 20
field mean 1500
field stddev 0
field min 1500
field max 1500
field sum 30000
field sqrsum 45000000
attr interpolationmode none
attr title "received packet byte length, histogram"
attr unit bytes
bin	-inf	0
bin	1499	0
bin	1500	20
bin	1501	0
scalar NetK.rte[4].queue[0] txBytes:count 15
attr interpolationmode none
attr title "transmitting packet byte length, count"
attr unit bytes
scalar NetK.rte[4].queue[0] txBytes:sum 22500
attr interpolationmode none
attr title "transmitting packet byte length, sum"
attr unit bytes
statistic NetK.rte[4].queue[0] txBytes:histogram
field count 15
field mean 1500
field stddev 0
field min 1500
field max 1500
field sum 22500
field sqrsum 33750000
attr interpolationmode none
attr title "transmitting packet byte length, histogram"
attr unit bytes
bin	-inf	0
bin	1499	0
bin	1500	15
bin	1501	0
scalar NetK.rte[4].queue[0] busy:timeavg 0.00018548134469853
attr interpolationmode sample-hold
attr title "server busy state, timeavg"
scalar NetK.rte[4].queue[0] qlen:timeavg 2.4664897037245e-005
attr interpolationmode sample-hold
attr title "queue length, timeavg"
scalar NetK.rte[4].queue[0] qlen:max 1
attr interpolationmode sample-hold
attr title "queue length, max"
scalar NetK.rte[4].queue[0] drop:count 0
attr interpolationmode none
attr title "dropped packet byte length, count"
attr unit bytes
scalar NetK.rte[4].queue[0] drop:sum 0
attr interpolationmode none
attr title "dropped packet byte length, sum"
attr unit bytes
statistic NetK.rte[4].queue[1] "drop count"
field count 0
field mean nan
field stddev nan
field min nan
field max nan
field sum 0
field sqrsum 0
bin	-inf	0
bin	0	0
bin	1	0
scalar NetK.rte[4].queue[1] rxBytes:count 28
attr interpolationmode none
attr title "received packet byte length, count"
attr unit bytes
scalar NetK.rte[4].queue[1] rxBytes:sum 42000
attr interpolationmode none
attr title "received packet byte length, sum"
attr unit bytes
statistic NetK.rte[4].queue[1] rxBytes:histogram
field count 28
field mean 1500
field stddev 0
field min 1500
field max 1500
field sum 42000
field sqrsum 63000000
attr interpolationmode none
attr title "received packet byte length, histogram"
attr unit bytes
bin	-inf	0
bin	1499	0
bin	1500	28
bin	1501	0
scalar NetK.rte[4].queue[1] txBytes:count 15
attr interpolationmode none
attr title "transmitting packet byte length, count"
attr unit bytes
scalar NetK.rte[4].queue[1] txBytes:sum 22500
attr interpolationmode none
attr title "transmitting packet byte length, sum"
attr unit bytes
statistic NetK.rte[4].queue[1] txBytes:histogram
field count 15
field mean 1500
field stddev 0
field min 1500
field max 1500
field sum 22500
field sqrsum 33750000
attr interpolationmode none
attr title "transmitting packet byte length, histogram"
attr unit bytes
bin	-inf	0
bin	1499	0
bin	1500	15
bin	1501	0
scalar NetK.rte[4].queue[1] busy:timeavg 0.00018548134469853
attr interpolationmode sample-hold
attr title "server busy state, timeavg"
scalar NetK.rte[4].queue[1] qlen:timeavg 2.4796794882364e-005
attr interpolationmode sample-hold
attr title "queue length, timeavg"
scalar NetK.rte[4].queue[1] qlen:max 1
attr interpolationmode sample-hold
attr title "queue length, max"
scalar NetK.rte[4].queue[1] drop:count 0
attr interpolationmode none
attr title "dropped packet byte length, count"
attr unit bytes
scalar NetK.rte[4].queue[1] drop:sum 0
attr interpolationmode none
attr title "dropped packet byte length, sum"
attr unit bytes
statistic NetK.rte[4].queue[2] "drop count"
field count 0
field mean nan
field stddev nan
field min nan
field max nan
field sum 0
field sqrsum 0
bin	-inf	0
bin	0	0
bin	1	0
scalar NetK.rte[4].queue[2] rxBytes:count 26
attr interpolationmode none
attr title "received packet byte length, count"
attr unit bytes
scalar NetK.rte[4].queue[2] rxBytes:sum 39000
attr interpolationmode none
attr title "received packet byte length, sum"
attr unit bytes
statistic NetK.rte[4].queue[2] rxBytes:histogram
field count 26
field mean 1500
field stddev 0
field min 1500
field max 1500
field sum 39000
field sqrsum 58500000
attr interpolationmode none
attr title "received packet byte length, histogram"
attr unit bytes
bin	-inf	0
bin	1499	0
bin	1500	26
bin	1501	0
scalar NetK.rte[4].queue[2] txBytes:count 12
attr interpolationmode none
attr title "transmitting packet byte length, count"
attr unit bytes
scalar NetK.rte[4].queue[2] txBytes:sum 18000
attr interpolationmode none
attr title "transmitting packet byte length, sum"
attr unit bytes
statistic NetK.rte[4].queue[2] txBytes:histogram
field count 12
field mean 1500
field stddev 0
field min 1500
field max 1500
field sum 18000
field sqrsum 27000000
attr interpolationmode none
attr title "transmitting packet byte length, histogram"
attr unit bytes
bin	-inf	0
bin	1499	0
bin	1500	12
bin	1501	0
scalar NetK.rte[4].queue[2] busy:timeavg 0.00014838507575882
attr interpolationmode sample-hold
attr title "server busy state, timeavg"
scalar NetK.rte[4].queue[2] qlen:timeavg 1.2299474057343e-005
attr interpolationmode sample-hold
attr title "queue length, timeavg"
scalar NetK.rte[4].queue[2] qlen:max 1
attr interpolationmode sample-hold
attr title "queue length, max"
scalar NetK.rte[4].queue[2] drop:count 0
attr interpolationmode none
attr title "dropped packet byte length, count"
attr unit bytes
scalar NetK.rte[4].queue[2] drop:sum 0
attr interpolationmode none
attr title "dropped packet byte length, sum"
attr unit bytes
statistic NetK.rte[4].queue[3] "drop count"
field count 0
field mean nan
field stddev nan
field min nan
field max nan
field sum 0
field sqrsum 0
bin	-inf	0
bin	0	0
bin	1	0
scalar NetK.rte[4].queue[3] rxBytes:count 11
attr interpolationmode none
attr title "received packet byte length, count"
attr unit bytes
scalar NetK.rte[4].queue[3] rxBytes:sum 16500
attr interpolationmode none
attr title "received packet byte length, sum"
attr unit bytes
statistic NetK.rte[4].queue[3] rxBytes:histogram
field count 11
field mean 1500
field stddev 0
field min 1500
field max 1500
field sum 16500
field sqrsum 24750000
attr interpolationmode none
attr title "received packet byte length, histogram"
attr unit bytes
bin	-inf	0
bin	1499	0
bin	1500	11
bin	1501	0
scalar NetK.rte[4].queue[3] txBytes:count 9
attr interpolationmode none
attr title "transmitting packet byte length, count"
attr unit bytes
scalar NetK.rte[4].queue[3] txBytes:sum 13500
attr interpolationmode none
attr title "transmitting packet byte length, sum"
attr unit bytes
statistic NetK.rte[4].queue[3] txBytes:histogram
field count 9
field mean 1500
field stddev 0
field min 1500
field max 1500
field sum 13500
field sqrsum 20250000
attr interpolationmode none
attr title "transmitting packet byte length, histogram"
attr unit bytes
bin	-inf	0
bin	1499	0
bin	1500	9
bin	1501	0
scalar NetK.rte[4].queue[3] busy:timeavg 0.00011128880681912
attr interpolationmode sample-hold
attr title "server busy state, timeavg"
scalar NetK.rte[4].queue[3] qlen:timeavg 1.2365422979902e-005
attr interpolationmode sample-hold
attr title "queue length, timeavg"
scalar NetK.rte[4].queue[3] qlen:max 1
attr interpolationmode sample-hold
attr title "queue length, max"
scalar NetK.rte[4].queue[3] drop:count 0
attr interpolationmode none
attr title "dropped packet byte length, count"
attr unit bytes
scalar NetK.rte[4].queue[3] drop:sum 0
attr interpolationmode none
attr title "dropped packet byte length, sum"
attr unit bytes
statistic NetK.rte[4].queue[4] "drop count"
field count 0
field mean nan
field stddev nan
field min nan
field max nan
field sum 0
field sqrsum 0
bin	-inf	0
bin	0	0
bin	1	0
scalar NetK.rte[4].queue[4] rxBytes:count 7951
attr interpolationmode none
attr title "received packet byte length, count"
attr unit bytes
scalar NetK.rte[4].queue[4] rxBytes:sum 11926500
attr interpolationmode none
attr title "received packet byte length, sum"
attr unit bytes
statistic NetK.rte[4].queue[4] rxBytes:histogram
field count 7951
field mean 1500
field stddev 0
field min 1500
field max 1500
field sum 11926500
field sqrsum 17889750000
attr interpolationmode none
attr title "received packet byte length, histogram"
attr unit bytes
bin	-inf	0
bin	1499	0
bin	1500	7951
bin	1501	0
scalar NetK.rte[4].queue[4] txBytes:count 7961
attr interpolationmode none
attr title "transmitting packet byte length, count"
attr unit bytes
scalar NetK.rte[4].queue[4] txBytes:sum 11941500
attr interpolationmode none
attr title "transmitting packet byte length, sum"
attr unit bytes
statistic NetK.rte[4].queue[4] txBytes:histogram
field count 7961
field mean 1500
field stddev 0
field min 1500
field max 1500
field sum 11941500
field sqrsum 17912250000
attr interpolationmode none
attr title "transmitting packet byte length, histogram"
attr unit bytes
bin	-inf	0
bin	1499	0
bin	1500	7961
bin	1501	0
scalar NetK.rte[4].queue[4] busy:timeavg 0.09842876692002
attr interpolationmode sample-hold
attr title "server busy state, timeavg"
scalar NetK.rte[4].queue[4] qlen:timeavg 1.2365422979902e-005
attr interpolationmode sample-hold
attr title "queue length, timeavg"
scalar NetK.rte[4].queue[4] qlen:max 1
attr interpolationmode sample-hold
attr title "queue length, max"
scalar NetK.rte[4].queue[4] drop:count 0
attr interpolationmode none
attr title "dropped packet byte length, count"
[...]
field count 0
field mean nan
field stddev nan
field min nan
field max nan
field sum 0
field sqrsum 0
bin	-inf	0
bin	0	0
bin	1	0
scalar NetK.rte[23].queue[4] rxBytes:count 7961
attr interpolationmode none
attr title "received packet byte length, count"
attr unit bytes
scalar NetK.rte[23].queue[4] rxBytes:sum 11941500
attr interpolationmode none
attr title "received packet byte length, sum"
attr unit bytes
statistic NetK.rte[23].queue[4] rxBytes:histogram
field count 7961
field mean 1500
field stddev 0
field min 1500
field max 1500
field sum 11941500
field sqrsum 17912250000
attr interpolationmode none
attr title "received packet byte length, histogram"
attr unit bytes
bin	-inf	0
bin	1499	0
bin	1500	7961
bin	1501	0
scalar NetK.rte[23].queue[4] txBytes:count 7951
attr interpolationmode none
attr title "transmitting packet byte length, count"
attr unit bytes
scalar NetK.rte[23].queue[4] txBytes:sum 11926500
attr interpolationmode none
attr title "transmitting packet byte length, sum"
attr unit bytes
statistic NetK.rte[23].queue[4] txBytes:histogram
field count 7951
field mean 1500
field stddev 0
field min 1500
field max 1500
field sum 11926500
field sqrsum 17889750000
attr interpolationmode none
attr title "transmitting packet byte length, histogram"
attr unit bytes
bin	-inf	0
bin	1499	0
bin	1500	7951
bin	1501	0
scalar NetK.rte[23].queue[4] busy:timeavg 0.098305112690225
attr interpolationmode sample-hold
attr title "server busy state, timeavg"
scalar NetK.rte[23].queue[4] qlen:timeavg 0
attr interpolationmode sample-hold
attr title "queue length, timeavg"
scalar NetK.rte[23].queue[4] qlen:max 0
attr interpolationmode sample-hold
attr title "queue length, max"
scalar NetK.rte[23].queue[4] drop:count 0
attr interpolationmode none
attr title "dropped packet byte length, count"
attr unit bytes
scalar NetK.rte[23].queue[4] drop:sum 0
attr interpolationmode none
attr title "dropped packet byte length, sum"
attr unit bytes
statistic NetK.rte[23].queue[5] "drop count"
field count 0
field mean nan
field stddev nan
field min nan
field max nan
field sum 0
field sqrsum 0
bin	-inf	0
bin	0	0
bin	1	0
scalar NetK.rte[23].queue[5] rxBytes:count 14
attr interpolationmode none
attr title "received packet byte length, count"
attr unit bytes
scalar NetK.rte[23].queue[5] rxBytes:sum 21000
attr interpolationmode none
attr title "received packet byte length, sum"
attr unit bytes
statistic NetK.rte[23].queue[5] rxBytes:histogram
field count 14
field mean 1500
field stddev 0
field min 1500
field max 1500
field sum 21000
field sqrsum 31500000
attr interpolationmode none
attr title "received packet byte length, histogram"
attr unit bytes
bin	-inf	0
bin	1499	0
bin	1500	14
bin	1501	0
scalar NetK.rte[23].queue[5] txBytes:count 11
attr interpolationmode none
attr title "transmitting packet byte length, count"
attr unit bytes
scalar NetK.rte[23].queue[5] txBytes:sum 16500
attr interpolationmode none
attr title "transmitting packet byte length, sum"
attr unit bytes
statistic NetK.rte[23].queue[5] txBytes:histogram
field count 11
field mean 1500
field stddev 0
field min 1500
field max 1500
field sum 16500
field sqrsum 24750000
attr interpolationmode none
attr title "transmitting packet byte length, histogram"
attr unit bytes
bin	-inf	0
bin	1499	0
bin	1500	11
bin	1501	0
scalar NetK.rte[23].queue[5] busy:timeavg 0.00013601965277892
attr interpolationmode sample-hold
attr title "server busy state, timeavg"
scalar NetK.rte[23].queue[5] qlen:timeavg 0
attr interpolationmode sample-hold
attr title "queue length, timeavg"
scalar NetK.rte[23].queue[5] qlen:max 0
attr interpolationmode sample-hold
attr title "queue length, max"
scalar NetK.rte[23].queue[5] drop:count 0
attr interpolationmode none
attr title "dropped packet byte length, count"
attr unit bytes
scalar NetK.rte[23].queue[5] drop:sum 0
attr interpolationmode none
attr title "dropped packet byte length, sum"
attr unit bytes
scalar NetK.rte[24].app #sent 0
scalar NetK.rte[24].app #received 0
statistic NetK.rte[24].app "hop count"
field count 0
field mean nan
field stddev nan
field min nan
field max nan
field sum 0
field sqrsum 0
bin	-inf	0
bin	0	0
bin	1	0
scalar NetK.rte[24].app hopCount:mean nan
attr interpolationmode none
attr title "hop count of arrived packets, mean"
scalar NetK.rte[24].app hopCount:max nan
attr interpolationmode none
attr title "hop count of arrived packets, max"
scalar NetK.rte[24].app hopCount:count 0
attr interpolationmode none
attr title "hop count of arrived packets, count"
statistic NetK.rte[24].app hopCount:histogram
field count 0
field mean nan
field stddev nan
field min nan
field max nan
field sum 0
field sqrsum 0
attr interpolationmode none
attr title "hop count of arrived packets, histogram"
bin	-inf	0
bin	0	0
bin	1	0
scalar NetK.rte[24].app endToEndDelay:mean nan
attr interpolationmode none
attr title "end-to-end delay of arrived packets, mean"
attr unit s
scalar NetK.rte[24].app endToEndDelay:max nan
attr interpolationmode none
attr title "end-to-end delay of arrived packets, max"
attr unit s
scalar NetK.rte[24].app endToEndDelay:count 0
attr interpolationmode none
attr title "end-to-end delay of arrived packets, count"
attr unit s
scalar NetK.rte[24].routing "Terminal Messages dropped due to wrong prediction" 0
statistic NetK.rte[24].routing TopoLinkCounter:histogram
field count 0
field mean nan
field stddev nan
field min nan
field max nan
field sum 0
field sqrsum 0
attr interpolationmode none
attr title "Number of links enabled in Topology, histogram"
bin	-inf	0
bin	0	0
bin	1	0
scalar NetK.rte[24].routing TopoLinkCounter:mean nan
attr interpolationmode none
attr title "Number of links enabled in Topology, mean"
scalar NetK.rte[24].routing TopoLinkCounter:max nan
attr interpolationmode none
attr title "Number of links enabled in Topology, max"
scalar NetK.rte[24].routing TopoLinkCounter:count 0
attr interpolationmode none
attr title "Number of links enabled in Topology, count"
statistic NetK.rte[24].routing outputIf:histogram
field count 0
field mean nan
field stddev nan
field min nan
field max nan
field sum 0
field sqrsum 0
attr interpolationmode none
attr title "output interface for each routed packet, histogram"
bin	-inf	0
bin	0	0
bin	1	0
scalar NetK.rte[24].routing drop:count 0
attr interpolationmode none
attr title "dropped packet byte length, count"
attr unit bytes
scalar NetK.rte[24].routing drop:sum 0
attr interpolationmode none
attr title "dropped packet byte length, sum"
attr unit bytes
statistic NetK.rte[24].routing hopCount:histogram
field count 0
field mean nan
field stddev nan
field min nan
field max nan
field sum 0
field sqrsum 0
attr interpolationmode none
attr title "count number of hops for packet, histogram"
bin	-inf	0
bin	0	0
bin	1	0
scalar NetK.rte[24].routing hopCount:mean nan
attr interpolationmode none
attr title "count number of hops for packet, mean"
scalar NetK.rte[24].routing hopCount:max nan
attr interpolationmode none
attr title "count number of hops for packet, max"
scalar NetK.rte[24].routing hopCount:count 0
attr interpolationmode none
attr title "count number of hops for packet, count"
statistic NetK.rte[24].queue[0] "drop count"
field count 0
field mean nan
field stddev nan
field min nan
field max nan
field sum 0
field sqrsum 0
bin	-inf	0
bin	0	0
bin	1	0
scalar NetK.rte[24].queue[0] rxBytes:count 2
attr interpolationmode none
attr title "received packet byte length, count"
attr unit bytes
scalar NetK.rte[24].queue[0] rxBytes:sum 3000
attr interpolationmode none
attr title "received packet byte length, sum"
attr unit bytes
statistic NetK.rte[24].queue[0] rxBytes:histogram
field count 2
field mean 1500
field stddev 0
field min 1500
field max 1500
field sum 3000
field sqrsum 4500000
attr interpolationmode none
attr title "received packet byte length, histogram"
attr unit bytes
bin	-inf	0
bin	1499	0
bin	1500	2
bin	1501	0
scalar NetK.rte[24].queue[0] txBytes:count 39
attr interpolationmode none
attr title "transmitting packet byte length, count"
attr unit bytes
scalar NetK.rte[24].queue[0] txBytes:sum 58500
attr interpolationmode none
attr title "transmitting packet byte length, sum"
attr unit bytes
statistic NetK.rte[24].queue[0] txBytes:histogram
field count 39
field mean 1500
field stddev 0
field min 1500
field max 1500
field sum 58500
field sqrsum 87750000
attr interpolationmode none
attr title "transmitting packet byte length, histogram"
attr unit bytes
bin	-inf	0
bin	1499	0
bin	1500	39
bin	1501	0
scalar NetK.rte[24].queue[0] busy:timeavg 0.00048225149621618
attr interpolationmode sample-hold
attr title "server busy state, timeavg"
scalar NetK.rte[24].queue[0] qlen:timeavg 0
attr interpolationmode sample-hold
attr title "queue length, timeavg"
scalar NetK.rte[24].queue[0] qlen:max 0
attr interpolationmode sample-hold
attr title "queue length, max"
scalar NetK.rte[24].queue[0] drop:count 0
attr interpolationmode none
attr title "dropped packet byte length, count"
attr unit bytes
scalar NetK.rte[24].queue[0] drop:sum 0
attr interpolationmode none
attr title "dropped packet byte length, sum"
attr unit bytes
statistic NetK.rte[24].queue[1] "drop count"
field count 0
field mean nan
field stddev nan
field min nan
field max nan
field sum 0
field sqrsum 0
bin	-inf	0
bin	0	0
bin	1	0
scalar NetK.rte[24].queue[1] rxBytes:count 28
attr interpolationmode none
attr title "received packet byte length, count"
attr unit bytes
scalar NetK.rte[24].queue[1] rxBytes:sum 42000
attr interpolationmode none
attr title "received packet byte length, sum"
attr unit bytes
statistic NetK.rte[24].queue[1] rxBytes:histogram
field count 28
field mean 1500
field stddev 0
field min 1500
field max 1500
field sum 42000
field sqrsum 63000000
attr interpolationmode none
attr title "received packet byte length, histogram"
attr unit bytes
bin	-inf	0
bin	1499	0
bin	1500	28
bin	1501	0
scalar NetK.rte[24].queue[1] txBytes:count 12
attr interpolationmode none
attr title "transmitting packet byte length, count"
attr unit bytes
scalar NetK.rte[24].queue[1] txBytes:sum 18000
attr interpolationmode none
attr title "transmitting packet byte length, sum"
attr unit bytes
statistic NetK.rte[24].queue[1] txBytes:histogram
field count 12
field mean 1500
field stddev 0
field min 1500
field max 1500
field sum 18000
field sqrsum 27000000
attr interpolationmode none
attr title "transmitting packet byte length, histogram"
attr unit bytes
bin	-inf	0
bin	1499	0
bin	1500	12
bin	1501	0
scalar NetK.rte[24].queue[1] busy:timeavg 0.00014838507575882
attr interpolationmode sample-hold
attr title "server busy state, timeavg"
scalar NetK.rte[24].queue[1] qlen:timeavg 0
attr interpolationmode sample-hold
attr title "queue length, timeavg"
scalar NetK.rte[24].queue[1] qlen:max 0
attr interpolationmode sample-hold
attr title "queue length, max"
scalar NetK.rte[24].queue[1] drop:count 0
attr interpolationmode none
attr title "dropped packet byte length, count"
attr unit bytes
scalar NetK.rte[24].queue[1] drop:sum 0
attr interpolationmode none
attr title "dropped packet byte length, sum"
attr unit bytes
statistic NetK.rte[24].queue[2] "drop count"
field count 0
field mean nan
field stddev nan
field min nan
field max nan
field sum 0
field sqrsum 0
bin	-inf	0
bin	0	0
bin	1	0
scalar NetK.rte[24].queue[2] rxBytes:count 19
attr interpolationmode none
attr title "received packet byte length, count"
attr unit bytes
scalar NetK.rte[24].queue[2] rxBytes:sum 28500
attr interpolationmode none
attr title "received packet byte length, sum"
attr unit bytes
statistic NetK.rte[24].queue[2] rxBytes:histogram
field count 19
field mean 1500
field stddev 0
field min 1500
field max 1500
field sum 28500
field sqrsum 42750000
attr interpolationmode none
attr title "received packet byte length, histogram"
attr unit bytes
bin	-inf	0
bin	1499	0
bin	1500	19
bin	1501	0
scalar NetK.rte[24].queue[2] txBytes:count 10
attr interpolationmode none
attr title "transmitting packet byte length, count"
attr unit bytes
scalar NetK.rte[24].queue[2] txBytes:sum 15000
attr interpolationmode none
attr title "transmitting packet byte length, sum"
attr unit bytes
statistic NetK.rte[24].queue[2] txBytes:histogram
field count 10
field mean 1500
field stddev 0
field min 1500
field max 1500
field sum 15000
field sqrsum 22500000
attr interpolationmode none
attr title "transmitting packet byte length, histogram"
attr unit bytes
bin	-inf	0
bin	1499	0
bin	1500	10
bin	1501	0
scalar NetK.rte[24].queue[2] busy:timeavg 0.00012365422979902
attr interpolationmode sample-hold
attr title "server busy state, timeavg"
scalar NetK.rte[24].queue[2] qlen:timeavg 0
attr interpolationmode sample-hold
attr title "queue length, timeavg"
scalar NetK.rte[24].queue[2] qlen:max 0
attr interpolationmode sample-hold
attr title "queue length, max"
scalar NetK.rte[24].queue[2] drop:count 0
attr interpolationmode none
attr title "dropped packet byte length, count"
attr unit bytes
scalar NetK.rte[24].queue[2] drop:sum 0
attr interpolationmode none
attr title "dropped packet byte length, sum"
attr unit bytes
statistic NetK.rte[24].queue[3] "drop count"
field count 0
field mean nan
field stddev nan
field min nan
field max nan
field sum 0
field sqrsum 0
bin	-inf	0
bin	0	0
bin	1	0
scalar NetK.rte[24].queue[3] rxBytes:count 9
attr interpolationmode none
attr title "received packet byte length, count"
attr unit bytes
scalar NetK.rte[24].queue[3] rxBytes:sum 13500
attr interpolationmode none
attr title "received packet byte length, sum"
attr unit bytes
statistic NetK.rte[24].queue[3] rxBytes:histogram
field count 9
field mean 1500
field stddev 0
field min 1500
field max 1500
field sum 13500
field sqrsum 20250000
attr interpolationmode none
attr title "received packet byte length, histogram"
attr unit bytes
bin	-inf	0
bin	1499	0
bin	1500	9
bin	1501	0
scalar NetK.rte[24].queue[3] txBytes:count 11
attr interpolationmode none
attr title "transmitting packet byte length, count"
attr unit bytes
scalar NetK.rte[24].queue[3] txBytes:sum 16500
attr interpolationmode none
attr title "transmitting packet byte length, sum"
attr unit bytes
statistic NetK.rte[24].queue[3] txBytes:histogram
field count 11
field mean 1500
field stddev 0
field min 1500
field max 1500
field sum 16500
field sqrsum 24750000
attr interpolationmode none
attr title "transmitting packet byte length, histogram"
attr unit bytes
bin	-inf	0
bin	1499	0
bin	1500	11
bin	1501	0
scalar NetK.rte[24].queue[3] busy:timeavg 0.00013601965277892
attr interpolationmode sample-hold
attr title "server busy state, timeavg"
scalar NetK.rte[24].queue[3] qlen:timeavg 0
attr interpolationmode sample-hold
attr title "queue length, timeavg"
scalar NetK.rte[24].queue[3] qlen:max 0
attr interpolationmode sample-hold
attr title "queue length, max"
scalar NetK.rte[24].queue[3] drop:count 0
attr interpolationmode none
attr title "dropped packet byte length, count"
attr unit bytes
scalar NetK.rte[24].queue[3] drop:sum 0
attr interpolationmode none
attr title "dropped packet byte length, sum"
attr unit bytes
statistic NetK.rte[24].queue[4] "drop count"
field count 0
field mean nan
field stddev nan
field min nan
field max nan
field sum 0
field sqrsum 0
bin	-inf	0
bin	0	0
bin	1	0
scalar NetK.rte[24].queue[4] rxBytes:count 60
attr interpolationmode none
attr title "received packet byte length, count"
attr unit bytes
scalar NetK.rte[24].queue[4] rxBytes:sum 90000
attr interpolationmode none
attr title "received packet byte length, sum"
attr unit bytes
statistic NetK.rte[24].queue[4] rxBytes:histogram
field count 60
field mean 1500
field stddev 0
field min 1500
field max 1500
field sum 90000
field sqrsum 135000000
attr interpolationmode none
attr title "received packet byte length, histogram"
attr unit bytes
bin	-inf	0
bin	1499	0
bin	1500	60
bin	1501	0
scalar NetK.rte[24].queue[4] txBytes:count 18
attr interpolationmode none
attr title "transmitting packet byte length, count"
attr unit bytes
scalar NetK.rte[24].queue[4] txBytes:sum 27000
attr interpolationmode none
attr title "transmitting packet byte length, sum"
attr unit bytes
statistic NetK.rte[24].queue[4] txBytes:histogram
field count 18
field mean 1500
field stddev 0
field min 1500
field max 1500
field sum 27000
field sqrsum 40500000
attr interpolationmode none
attr title "transmitting packet byte length, histogram"
attr unit bytes
bin	-inf	0
bin	1499	0
bin	1500	18
bin	1501	0
scalar NetK.rte[24].queue[4] busy:timeavg 0.00022257761363824
attr interpolationmode sample-hold
attr title "server busy state, timeavg"
scalar NetK.rte[24].queue[4] qlen:timeavg 0
attr interpolationmode sample-hold
attr title "queue length, timeavg"
scalar NetK.rte[24].queue[4] qlen:max 0
attr interpolationmode sample-hold
attr title "queue length, max"
scalar NetK.rte[24].queue[4] drop:count 0
attr interpolationmode none
attr title "dropped packet byte length, count"
attr unit bytes
scalar NetK.rte[24].queue[4] drop:sum 0
attr interpolationmode none
attr title "dropped packet byte length, sum"
attr unit bytes
statistic NetK.rte[24].queue[5] "drop count"
field count 0
field mean nan
field stddev nan
field min nan
field max nan
field sum 0
field sqrsum 0
bin	-inf	0
bin	0	0
bin	1	0
scalar NetK.rte[24].queue[5] rxBytes:count 33
attr interpolationmode none
attr title "received packet byte length, count"
attr unit bytes
scalar NetK.rte[24].queue[5] rxBytes:sum 49500
attr interpolationmode none
attr title "received packet byte length, sum"
attr unit bytes
statistic NetK.rte[24].queue[5] rxBytes:histogram
field count 33
field mean 1500
field stddev 0
field min 1500
field max 1500
field sum 49500
field sqrsum 74250000
attr interpolationmode none
attr title "received packet byte length, histogram"
attr unit bytes
bin	-inf	0
bin	1499	0
bin	1500	33
bin	1501	0
scalar NetK.rte[24].queue[5] txBytes:count 12
attr interpolationmode none
attr title "transmitting packet byte length, count"
attr unit bytes
scalar NetK.rte[24].queue[5] txBytes:sum 18000
attr interpolationmode none
attr title "transmitting packet byte length, sum"
attr unit bytes
statistic NetK.rte[24].queue[5] txBytes:histogram
field count 12
field mean 1500
field stddev 0
field min 1500
field max 1500
field sum 18000
field sqrsum 27000000
attr interpolationmode none
attr title "transmitting packet byte length, histogram"
attr unit bytes
bin	-inf	0
bin	1499	0
bin	1500	12
bin	1501	0
scalar NetK.rte[24].queue[5] busy:timeavg 0.00014838507575882
attr interpolationmode sample-hold
attr title "server busy state, timeavg"
scalar NetK.rte[24].queue[5] qlen:timeavg 0
attr interpolationmode sample-hold
attr title "queue length, timeavg"
scalar NetK.rte[24].queue[5] qlen:max 0
attr interpolationmode sample-hold
attr title "queue length, max"
scalar NetK.rte[24].queue[5] drop:count 0
attr interpolationmode none
attr title "dropped packet byte length, count"
attr unit bytes
scalar NetK.rte[24].queue[5] drop:sum 0
attr interpolationmode none
attr title "dropped packet byte length, sum"
attr unit bytes
scalar NetK.terminal[0].app numSent 451
scalar NetK.terminal[0].app numReceived 150
scalar NetK.terminal[0].app endToEndDelay:mean 0.00032878826
attr interpolationmode none
attr title "end-to-end delay of arrived packets, mean"
attr unit s
scalar NetK.terminal[0].app endToEndDelay:max 0.001900394
attr interpolationmode none
attr title "end-to-end delay of arrived packets, max"
attr unit s
scalar NetK.terminal[0].app endToEndDelay:count 150
attr interpolationmode none
attr title "end-to-end delay of arrived packets, count"
attr unit s
scalar NetK.terminal[1].app numSent 150
scalar NetK.terminal[1].app numReceived 163
scalar NetK.terminal[1].app endToEndDelay:mean 0.00032468093251534
attr interpolationmode none
attr title "end-to-end delay of arrived packets, mean"
attr unit s
scalar NetK.terminal[1].app endToEndDelay:max 0.00254498
attr interpolationmode none
attr title "end-to-end delay of arrived packets, max"
attr unit s
scalar NetK.terminal[1].app endToEndDelay:count 163
attr interpolationmode none
attr title "end-to-end delay of arrived packets, count"
attr unit s

