file 56609326 1601389397                                        
version 2
run NetK-0-20200923-16:13:15-13552
attr configname NetK
attr datetime 20200923-16:13:15
attr experiment NetK
attr inifile omnetpp.ini
attr iterationvars "$seed=1, $alpha=5, $mVar=5, $LB=true, $LinkPre=true"
attr iterationvarsf seed=1,alpha=5,mVar=5,LB=true,LinkPre=true-
attr measurement "$seed=1, $alpha=5, $mVar=5, $LB=true, $LinkPre=true"
attr network networks.NetK
attr processid 13552
attr repetition 0
attr replication #0
attr resultdir results
attr runnumber 0
attr seedset 1
itervar LB true
itervar LinkPre true
itervar alpha 5
itervar mVar 5
itervar seed 1
param **.num_of_hosts 25
param **.num_of_terminals 10
param *.rte[*].app.hasApp false
param *.terminal[*].radius 1500m
param *.terminal[*].frac 0.8
param *.rte[*].maxTerminalNumber 10
param *.rte[*].maxHopCountForTerminalList 2
param **.maxX 10000m
param **.maxY 10000m
param **.minX 0m
param **.minY 0m
param *.rte[*].mobility.typename "\"TurtleMobility\""
param *.rte[*].mobilityType "\"TurtleMobility\""
param *.rte[0].mobility.turtleScript "xmldoc(\"mobility.xml\", \"movements//movement[@id='0']\")"
param *.rte[1].mobility.turtleScript "xmldoc(\"mobility.xml\", \"movements//movement[@id='1']\")"
param *.rte[2].mobility.turtleScript "xmldoc(\"mobility.xml\", \"movements//movement[@id='2']\")"
param *.rte[3].mobility.turtleScript "xmldoc(\"mobility.xml\", \"movements//movement[@id='3']\")"
param *.rte[4].mobility.turtleScript "xmldoc(\"mobility.xml\", \"movements//movement[@id='4']\")"
param *.rte[5].mobility.turtleScript "xmldoc(\"mobility.xml\", \"movements//movement[@id='5']\")"
param *.rte[6].mobility.turtleScript "xmldoc(\"mobility.xml\", \"movements//movement[@id='6']\")"
param *.rte[7].mobility.turtleScript "xmldoc(\"mobility.xml\", \"movements//movement[@id='7']\")"
param *.rte[8].mobility.turtleScript "xmldoc(\"mobility.xml\", \"movements//movement[@id='8']\")"
param *.rte[9].mobility.turtleScript "xmldoc(\"mobility.xml\", \"movements//movement[@id='9']\")"
param *.rte[10].mobility.turtleScript "xmldoc(\"mobility.xml\", \"movements//movement[@id='10']\")"
param *.rte[11].mobility.turtleScript "xmldoc(\"mobility.xml\", \"movements//movement[@id='11']\")"
param *.rte[12].mobility.turtleScript "xmldoc(\"mobility.xml\", \"movements//movement[@id='12']\")"
param *.rte[13].mobility.turtleScript "xmldoc(\"mobility.xml\", \"movements//movement[@id='13']\")"
param *.rte[14].mobility.turtleScript "xmldoc(\"mobility.xml\", \"movements//movement[@id='14']\")"
param *.rte[15].mobility.turtleScript "xmldoc(\"mobility.xml\", \"movements//movement[@id='15']\")"
param *.rte[16].mobility.turtleScript "xmldoc(\"mobility.xml\", \"movements//movement[@id='16']\")"
param *.rte[17].mobility.turtleScript "xmldoc(\"mobility.xml\", \"movements//movement[@id='17']\")"
param *.rte[18].mobility.turtleScript "xmldoc(\"mobility.xml\", \"movements//movement[@id='18']\")"
param *.rte[19].mobility.turtleScript "xmldoc(\"mobility.xml\", \"movements//movement[@id='19']\")"
param *.rte[20].mobility.turtleScript "xmldoc(\"mobility.xml\", \"movements//movement[@id='20']\")"
param *.rte[21].mobility.turtleScript "xmldoc(\"mobility.xml\", \"movements//movement[@id='21']\")"
param *.rte[22].mobility.turtleScript "xmldoc(\"mobility.xml\", \"movements//movement[@id='22']\")"
param *.rte[23].mobility.turtleScript "xmldoc(\"mobility.xml\", \"movements//movement[@id='23']\")"
param *.rte[24].mobility.turtleScript "xmldoc(\"mobility.xml\", \"movements//movement[@id='24']\")"
param *.terminal[*].mobility.typename "\"StationaryMobility\""
param *.terminal[*].mobilityType "\"StationaryMobility\""
param **.alpha 5
param **.m_var 5
param **.changeRate 25s
param **.terminal[*].app.packetLength 1500bytes
param **.terminal[*].app.sendIaTime exponential(150ms)
param **.terminal[*].app.burst_next_interval exponential(25s)
param **.terminal[*].app.burst_size intuniform(80,320)
param **.terminal[*].app.pingTime exponential(3s)
param **.rte[*].appType "\"App\""
param **.rte[*].frameCapacity 7000
param **.datarate 5Mbps
param **.load_balance_mode true
param **.load_balance_link_prediction true
param **.load_threshold 85

vector 0 NetK.rte[0] coordX:vector ETV
attr interpolationmode linear
attr source xCoord(mobilityPos(mobilityStateChanged))
attr title "coord X, vector"
0	3858184 42702 0 1185488 0 200.7 2083 1000 1000 2083000 2083000000
0	18212097 35930 1187287 2119031 200.7622832 358 1629 1000 1000 1629000 1629000000
0	37474766 43903 2119206 3295197 358.0284096 549.8 1989 1000 1000 1989000 1989000000
0	52525066 11425 3295447 3547380 549.846496687 600.15 519 1000 1000 519000 519000000
vector 1 NetK.rte[0] coordY:vector ETV
attr interpolationmode linear
attr source yCoord(mobilityPos(mobilityStateChanged))
attr title "coord Y, vector"
1	3900886 43048 0 1185488 0 200.7 2083 5 10000 10374656.82425 69224490139.598
1	18248027 36371 1187287 2119031 200.7622832 358 1629 1038.11416 8900 8103889.615294 48754315297.995
1	37518669 44242 2119206 3295197 358.0284096 549.8 1989 5 10000 9664649.3739864 63105885283.854
1	52536491 11323 3295447 3547380 549.846496687 600.15 519 5 10000 2990106.6167029 26810313281.094
vector 2 NetK.rte[1] coordX:vector ETV
attr interpolationmode linear
attr source xCoord(mobilityPos(mobilityStateChanged))
attr title "coord X, vector"
2	3943934 42702 0 1185489 0 200.7 2083 3000 3000 6249000 18747000000
2	18284398 35930 1187287 2119032 200.7622832 358 1629 3000 3000 4887000 14661000000
2	37562911 43903 2119206 3295198 358.0284096 549.8 1989 3000 3000 5967000 17901000000
2	52547814 11425 3295447 3547380 549.846496687 600.15 519 3000 3000 1557000 4671000000
vector 3 NetK.rte[1] coordY:vector ETV
attr interpolationmode linear
attr source yCoord(mobilityPos(mobilityStateChanged))
attr title "coord Y, vector"
3	3986636 43048 0 1185489 0 200.7 2083 5 10000 10374656.82425 69224490139.598
3	18320328 36371 1187287 2119032 200.7622832 358 1629 1038.11416 8900 8103889.615294 48754315297.995
3	37606814 44242 2119206 3295198 358.0284096 549.8 1989 5 10000 9664649.3739864 63105885283.854
3	52559239 11323 3295447 3547380 549.846496687 600.15 519 5 10000 2990106.6167029 26810313281.094
vector 4 NetK.rte[2] coordX:vector ETV
attr interpolationmode linear
attr source xCoord(mobilityPos(mobilityStateChanged))
attr title "coord X, vector"
4	4029684 42702 0 1185490 0 200.7 2083 5000 5000 10415000 52075000000
4	18356699 35930 1187287 2119033 200.7622832 358 1629 5000 5000 8145000 40725000000
4	37651056 43903 2119206 3295199 358.0284096 549.8 1989 5000 5000 9945000 49725000000
4	52570562 11425 3295447 3547380 549.846496687 600.15 519 5000 5000 2595000 12975000000
vector 5 NetK.rte[2] coordY:vector ETV
attr interpolationmode linear
attr source yCoord(mobilityPos(mobilityStateChanged))
attr title "coord Y, vector"
5	4072386 43048 0 1185490 0 200.7 2083 5 10000 10374656.82425 69224490139.598
5	18392629 36371 1187287 2119033 200.7622832 358 1629 1038.11416 8900 8103889.615294 48754315297.995
5	37694959 44242 2119206 3295199 358.0284096 549.8 1989 5 10000 9664649.3739864 63105885283.854
5	52581987 11323 3295447 3547380 549.846496687 600.15 519 5 10000 2990106.6167029 26810313281.094
vector 6 NetK.rte[3] coordX:vector ETV
attr interpolationmode linear
attr source xCoord(mobilityPos(mobilityStateChanged))
attr title "coord X, vector"
6	4115434 42702 0 1185491 0 200.7 2083 7000 7000 14581000 102067000000
6	18429000 35930 1187287 2119034 200.7622832 358 1629 7000 7000 11403000 79821000000
6	37739201 43903 2119206 3295200 358.0284096 549.8 1989 7000 7000 13923000 97461000000
6	52593310 11425 3295447 3547380 549.846496687 600.15 519 7000 7000 3633000 25431000000
vector 7 NetK.rte[3] coordY:vector ETV
attr interpolationmode linear
attr source yCoord(mobilityPos(mobilityStateChanged))
attr title "coord Y, vector"
7	4158136 43048 0 1185491 0 200.7 2083 5 10000 10374656.82425 69224490139.598
7	18464930 36371 1187287 2119034 200.7622832 358 1629 1038.11416 8900 8103889.615294 48754315297.995
7	37783104 44242 2119206 3295200 358.0284096 549.8 1989 5 10000 9664649.3739864 63105885283.854
7	52604735 11323 3295447 3547380 549.846496687 600.15 519 5 10000 2990106.6167029 26810313281.094
vector 8 NetK.rte[4] coordX:vector ETV
attr interpolationmode linear
attr source xCoord(mobilityPos(mobilityStateChanged))
attr title "coord X, vector"
8	4201184 42702 0 1185492 0 200.7 2083 9000 9000 18747000 168723000000
8	18501301 35930 1187287 2119035 200.7622832 358 1629 9000 9000 14661000 131949000000
8	37827346 43903 2119206 3295201 358.0284096 549.8 1989 9000 9000 17901000 161109000000
8	52616058 11425 3295447 3547380 549.846496687 600.15 519 9000 9000 4671000 42039000000
vector 9 NetK.rte[4] coordY:vector ETV
attr interpolationmode linear
attr source yCoord(mobilityPos(mobilityStateChanged))
attr title "coord Y, vector"
9	4243886 43048 0 1185492 0 200.7 2083 5 10000 10374656.82425 69224490139.598
9	18537231 36371 1187287 2119035 200.7622832 358 1629 1038.11416 8900 8103889.615294 48754315297.995
9	37871249 44242 2119206 3295201 358.0284096 549.8 1989 5 10000 9664649.3739864 63105885283.854
9	52627483 11323 3295447 3547380 549.846496687 600.15 519 5 10000 2990106.6167029 26810313281.094
vector 10 NetK.rte[5] coordX:vector ETV
attr interpolationmode linear
attr source xCoord(mobilityPos(mobilityStateChanged))
attr title "coord X, vector"
10	4286934 44785 0 1185493 0 200.7 2083 1000 1000 2083000 2083000000
10	18573602 37559 1187287 2119036 200.7622832 358 1629 1000 1000 1629000 1629000000
10	37915491 45892 2119206 3295202 358.0284096 549.8 1989 1000 1000 1989000 1989000000
10	52638806 11944 3295447 3547380 549.846496687 600.15 519 1000 1000 519000 519000000
vector 11 NetK.rte[5] coordY:vector ETV
attr interpolationmode linear
attr source yCoord(mobilityPos(mobilityStateChanged))
attr title "coord Y, vector"
11	4331719 45138 0 1185493 0 200.7 2083 5 10000 10380656.82425 69091237393.758
11	18611161 37793 1187287 2119036 200.7622832 358 1629 5 10000 9481889.615294 67162138213.691
11	37961383 46315 2119206 3295202 358.0284096 549.8 1989 5 10000 10282649.373986 68818627240.304
11	52650750 11960 3295447 3547380 549.846496687 600.15 519 492.32483435 3007.5 908106.6167029 1863625265.7159
vector 12 NetK.rte[6] coordX:vector ETV
attr interpolationmode linear
attr source xCoord(mobilityPos(mobilityStateChanged))
attr title "coord X, vector"
12	4376857 44785 0 1185494 0 200.7 2083 3000 3000 6249000 18747000000
12	18648954 37559 1187287 2119037 200.7622832 358 1629 3000 3000 4887000 14661000000
12	38007698 45892 2119206 3295203 358.0284096 549.8 1989 3000 3000 5967000 17901000000
12	52662710 11944 3295447 3547380 549.846496687 600.15 519 3000 3000 1557000 4671000000
vector 13 NetK.rte[6] coordY:vector ETV
attr interpolationmode linear
attr source yCoord(mobilityPos(mobilityStateChanged))
attr title "coord Y, vector"
13	4421642 45138 0 1185494 0 200.7 2083 5 10000 10380656.82425 69091237393.758
13	18686513 37793 1187287 2119037 200.7622832 358 1629 5 10000 9481889.615294 67162138213.691
13	38053590 46315 2119206 3295203 358.0284096 549.8 1989 5 10000 10282649.373986 68818627240.304
13	52674654 11960 3295447 3547380 549.846496687 600.15 519 492.32483435 3007.5 908106.6167029 1863625265.7159
vector 14 NetK.rte[7] coordX:vector ETV
attr interpolationmode linear
attr source xCoord(mobilityPos(mobilityStateChanged))
attr title "coord X, vector"
14	4466780 44785 0 1185495 0 200.7 2083 5000 5000 10415000 52075000000
14	18724306 37559 1187287 2119038 200.7622832 358 1629 5000 5000 8145000 40725000000
14	38099905 45892 2119206 3295204 358.0284096 549.8 1989 5000 5000 9945000 49725000000
14	52686614 11944 3295447 3547380 549.846496687 600.15 519 5000 5000 2595000 12975000000
vector 15 NetK.rte[7] coordY:vector ETV
attr interpolationmode linear
attr source yCoord(mobilityPos(mobilityStateChanged))
attr title "coord Y, vector"
15	4511565 45138 0 1185495 0 200.7 2083 5 10000 10380656.82425 69091237393.758
15	18761865 37793 1187287 2119038 200.7622832 358 1629 5 10000 9481889.615294 67162138213.691
15	38145797 46315 2119206 3295204 358.0284096 549.8 1989 5 10000 10282649.373986 68818627240.304
15	52698558 11960 3295447 3547380 549.846496687 600.15 519 492.32483435 3007.5 908106.6167029 1863625265.7159
vector 16 NetK.rte[8] coordX:vector ETV
attr interpolationmode linear
attr source xCoord(mobilityPos(mobilityStateChanged))
attr title "coord X, vector"
16	4556703 44785 0 1185496 0 200.7 2083 7000 7000 14581000 102067000000
16	18799658 37559 1187287 2119039 200.7622832 358 1629 7000 7000 11403000 79821000000
16	38192112 45892 2119206 3295205 358.0284096 549.8 1989 7000 7000 13923000 97461000000
16	52710518 11944 3295447 3547380 549.846496687 600.15 519 7000 7000 3633000 25431000000
vector 17 NetK.rte[8] coordY:vector ETV
attr interpolationmode linear
attr source yCoord(mobilityPos(mobilityStateChanged))
attr title "coord Y, vector"
17	4601488 45138 0 1185496 0 200.7 2083 5 10000 10380656.82425 69091237393.758
17	18837217 37793 1187287 2119039 200.7622832 358 1629 5 10000 9481889.615294 67162138213.691
17	38238004 46315 2119206 3295205 358.0284096 549.8 1989 5 10000 10282649.373986 68818627240.304
17	52722462 11960 3295447 3547380 549.846496687 600.15 519 492.32483435 3007.5 908106.6167029 1863625265.7159
vector 18 NetK.rte[9] coordX:vector ETV
attr interpolationmode linear
attr source xCoord(mobilityPos(mobilityStateChanged))
attr title "coord X, vector"
18	4646626 44785 0 1185497 0 200.7 2083 9000 9000 18747000 168723000000
18	18875010 37559 1187287 2119040 200.7622832 358 1629 9000 9000 14661000 131949000000
18	38284319 45892 2119206 3295206 358.0284096 549.8 1989 9000 9000 17901000 161109000000
18	52734422 11944 3295447 3547380 549.846496687 600.15 519 9000 9000 4671000 42039000000
vector 19 NetK.rte[9] coordY:vector ETV
attr interpolationmode linear
attr source yCoord(mobilityPos(mobilityStateChanged))
attr title "coord Y, vector"
19	4691411 45138 0 1185497 0 200.7 2083 5 10000 10380656.82425 69091237393.758
19	18912569 37793 1187287 2119040 200.7622832 358 1629 5 10000 9481889.615294 67162138213.691
19	38330211 46315 2119206 3295206 358.0284096 549.8 1989 5 10000 10282649.373986 68818627240.304
19	52746366 11960 3295447 3547380 549.846496687 600.15 519 492.32483435 3007.5 908106.6167029 1863625265.7159
vector 20 NetK.rte[10] coordX:vector ETV
attr interpolationmode linear
attr source xCoord(mobilityPos(mobilityStateChanged))
attr title "coord X, vector"
20	4736549 44785 0 1185498 0 200.7 2083 1000 1000 2083000 2083000000
20	18950362 37559 1187287 2119041 200.7622832 358 1629 1000 1000 1629000 1629000000
20	38376526 45892 2119206 3295207 358.0284096 549.8 1989 1000 1000 1989000 1989000000
20	52758326 11944 3295447 3547380 549.846496687 600.15 519 1000 1000 519000 519000000
vector 21 NetK.rte[10] coordY:vector ETV
attr interpolationmode linear
attr source yCoord(mobilityPos(mobilityStateChanged))
attr title "coord Y, vector"
21	4781334 45138 0 1185498 0 200.7 2083 5 10000 10396656.82425 69124305146.066
21	18987921 37773 1187287 2119041 200.7622832 358 1629 5 10000 8579889.615294 61681171097.377
21	38422418 46231 2119206 3295207 358.0284096 549.8 1989 5 10000 10140649.373986 68455710794.992
21	52770270 12065 3295447 3547380 549.846496687 600.15 519 2492.32483435 5007.5 1946106.6167029 7572051732.5275
vector 22 NetK.rte[11] coordX:vector ETV
attr interpolationmode linear
attr source xCoord(mobilityPos(mobilityStateChanged))
attr title "coord X, vector"
22	4826472 44785 0 1185499 0 200.7 2083 3000 3000 6249000 18747000000
22	19025694 37559 1187287 2119042 200.7622832 358 1629 3000 3000 4887000 14661000000
22	38468649 45892 2119206 3295208 358.0284096 549.8 1989 3000 3000 5967000 17901000000
22	52782335 11944 3295447 3547380 549.846496687 600.15 519 3000 3000 1557000 4671000000
vector 23 NetK.rte[11] coordY:vector ETV
attr interpolationmode linear
attr source yCoord(mobilityPos(mobilityStateChanged))
attr title "coord Y, vector"
23	4871257 45138 0 1185499 0 200.7 2083 5 10000 10396656.82425 69124305146.066
23	19063253 37773 1187287 2119042 200.7622832 358 1629 5 10000 8579889.615294 61681171097.377
23	38514541 46231 2119206 3295208 358.0284096 549.8 1989 5 10000 10140649.373986 68455710794.992
23	52794279 12065 3295447 3547380 549.846496687 600.15 519 2492.32483435 5007.5 1946106.6167029 7572051732.5275
vector 24 NetK.rte[12] coordX:vector ETV
attr interpolationmode linear
attr source xCoord(mobilityPos(mobilityStateChanged))
attr title "coord X, vector"
24	4916395 44785 0 1185500 0 200.7 2083 5000 5000 10415000 52075000000
24	19101026 37559 1187287 2119043 200.7622832 358 1629 5000 5000 8145000 40725000000
24	38560772 45892 2119206 3295209 358.0284096 549.8 1989 5000 5000 9945000 49725000000
24	52806344 11944 3295447 3547380 549.846496687 600.15 519 5000 5000 2595000 12975000000
vector 25 NetK.rte[12] coordY:vector ETV
attr interpolationmode linear
attr source yCoord(mobilityPos(mobilityStateChanged))
attr title "coord Y, vector"
25	4961180 45138 0 1185500 0 200.7 2083 5 10000 10396656.82425 69124305146.066
25	19138585 37773 1187287 2119043 200.7622832 358 1629 5 10000 8579889.615294 61681171097.377
25	38606664 46231 2119206 3295209 358.0284096 549.8 1989 5 10000 10140649.373986 68455710794.992
25	52818288 12065 3295447 3547380 549.846496687 600.15 519 2492.32483435 5007.5 1946106.6167029 7572051732.5275
vector 26 NetK.rte[13] coordX:vector ETV
attr interpolationmode linear
attr source xCoord(mobilityPos(mobilityStateChanged))
attr title "coord X, vector"
26	5006318 44785 0 1185501 0 200.7 2083 7000 7000 14581000 102067000000
26	19176358 37559 1187287 2119044 200.7622832 358 1629 7000 7000 11403000 79821000000
26	38652895 45892 2119206 3295210 358.0284096 549.8 1989 7000 7000 13923000 97461000000
26	52830353 11944 3295447 3547380 549.846496687 600.15 519 7000 7000 3633000 25431000000
vector 27 NetK.rte[13] coordY:vector ETV
attr interpolationmode linear
attr source yCoord(mobilityPos(mobilityStateChanged))
attr title "coord Y, vector"
27	5051103 45138 0 1185501 0 200.7 2083 5 10000 10396656.82425 69124305146.066
27	19213917 37773 1187287 2119044 200.7622832 358 1629 5 10000 8579889.615294 61681171097.377
27	38698787 46231 2119206 3295210 358.0284096 549.8 1989 5 10000 10140649.373986 68455710794.992
27	52842297 12065 3295447 3547380 549.846496687 600.15 519 2492.32483435 5007.5 1946106.6167029 7572051732.5275
vector 28 NetK.rte[14] coordX:vector ETV
attr interpolationmode linear
attr source xCoord(mobilityPos(mobilityStateChanged))
attr title "coord X, vector"
28	5096241 44785 0 1185502 0 200.7 2083 9000 9000 18747000 168723000000
28	19251690 37559 1187287 2119045 200.7622832 358 1629 9000 9000 14661000 131949000000
28	38745018 45892 2119206 3295211 358.0284096 549.8 1989 9000 9000 17901000 161109000000
28	52854362 11944 3295447 3547380 549.846496687 600.15 519 9000 9000 4671000 42039000000
vector 29 NetK.rte[14] coordY:vector ETV
attr interpolationmode linear
attr source yCoord(mobilityPos(mobilityStateChanged))
attr title "coord Y, vector"
29	5141026 45138 0 1185502 0 200.7 2083 5 10000 10396656.82425 69124305146.066
29	19289249 37773 1187287 2119045 200.7622832 358 1629 5 10000 8579889.615294 61681171097.377
29	38790910 46231 2119206 3295211 358.0284096 549.8 1989 5 10000 10140649.373986 68455710794.992
29	52866306 12065 3295447 3547380 549.846496687 600.15 519 2492.32483435 5007.5 1946106.6167029 7572051732.5275
vector 30 NetK.rte[15] coordX:vector ETV
attr interpolationmode linear
attr source xCoord(mobilityPos(mobilityStateChanged))
attr title "coord X, vector"
30	5186164 44785 0 1185503 0 200.7 2083 1000 1000 2083000 2083000000
30	19327022 37559 1187287 2119046 200.7622832 358 1629 1000 1000 1629000 1629000000
30	38837141 45892 2119206 3295212 358.0284096 549.8 1989 1000 1000 1989000 1989000000
30	52878371 11944 3295447 3547380 549.846496687 600.15 519 1000 1000 519000 519000000
vector 31 NetK.rte[15] coordY:vector ETV
attr interpolationmode linear
attr source yCoord(mobilityPos(mobilityStateChanged))
attr title "coord Y, vector"
31	5230949 45139 0 1185503 0 200.7 2083 5 10000 10442656.82425 69569115562.52
31	19364581 37776 1187287 2119046 200.7622832 358 1629 5 10000 7727889.615294 53164558237.536
31	38883033 46229 2119206 3295212 358.0284096 549.8 1989 5 10000 9988649.3739864 67415914371.453
31	52890315 12065 3295447 3547380 549.846496687 600.15 519 4492.32483435 7007.5 2984106.6167029 17432478199.339
vector 32 NetK.rte[16] coordX:vector ETV
attr interpolationmode linear
attr source xCoord(mobilityPos(mobilityStateChanged))
attr title "coord X, vector"
32	5276088 44785 0 1185504 0 200.7 2083 3000 3000 6249000 18747000000
32	19402357 37559 1187287 2119047 200.7622832 358 1629 3000 3000 4887000 14661000000
32	38929262 45892 2119206 3295213 358.0284096 549.8 1989 3000 3000 5967000 17901000000
32	52902380 11944 3295447 3547380 549.846496687 600.15 519 3000 3000 1557000 4671000000
vector 33 NetK.rte[16] coordY:vector ETV
attr interpolationmode linear
attr source yCoord(mobilityPos(mobilityStateChanged))
attr title "coord Y, vector"
33	5320873 45139 0 1185504 0 200.7 2083 5 10000 10442656.82425 69569115562.52
33	19439916 37776 1187287 2119047 200.7622832 358 1629 5 10000 7727889.615294 53164558237.536
33	38975154 46229 2119206 3295213 358.0284096 549.8 1989 5 10000 9988649.3739864 67415914371.453
33	52914324 12065 3295447 3547380 549.846496687 600.15 519 4492.32483435 7007.5 2984106.6167029 17432478199.339
vector 34 NetK.rte[17] coordX:vector ETV
attr interpolationmode linear
attr source xCoord(mobilityPos(mobilityStateChanged))
attr title "coord X, vector"
34	5366012 44785 0 1185505 0 200.7 2083 5000 5000 10415000 52075000000
34	19477692 37559 1187287 2119048 200.7622832 358 1629 5000 5000 8145000 40725000000
34	39021383 45892 2119206 3295214 358.0284096 549.8 1989 5000 5000 9945000 49725000000
34	52926389 11944 3295447 3547380 549.846496687 600.15 519 5000 5000 2595000 12975000000
vector 35 NetK.rte[17] coordY:vector ETV
attr interpolationmode linear
attr source yCoord(mobilityPos(mobilityStateChanged))
attr title "coord Y, vector"
35	5410797 45139 0 1185505 0 200.7 2083 5 10000 10442656.82425 69569115562.52
35	19515251 37776 1187287 2119048 200.7622832 358 1629 5 10000 7727889.615294 53164558237.536
35	39067275 46229 2119206 3295214 358.0284096 549.8 1989 5 10000 9988649.3739864 67415914371.453
35	52938333 12065 3295447 3547380 549.846496687 600.15 519 4492.32483435 7007.5 2984106.6167029 17432478199.339
vector 36 NetK.rte[18] coordX:vector ETV
attr interpolationmode linear
attr source xCoord(mobilityPos(mobilityStateChanged))
attr title "coord X, vector"
36	5455936 44785 0 1185506 0 200.7 2083 7000 7000 14581000 102067000000
36	19553027 37559 1187287 2119049 200.7622832 358 1629 7000 7000 11403000 79821000000
36	39113504 45892 2119206 3295215 358.0284096 549.8 1989 7000 7000 13923000 97461000000
36	52950398 11944 3295447 3547380 549.846496687 600.15 519 7000 7000 3633000 25431000000
vector 37 NetK.rte[18] coordY:vector ETV
attr interpolationmode linear
attr source yCoord(mobilityPos(mobilityStateChanged))
attr title "coord Y, vector"
37	5500721 45139 0 1185506 0 200.7 2083 5 10000 10442656.82425 69569115562.52
37	19590586 37776 1187287 2119049 200.7622832 358 1629 5 10000 7727889.615294 53164558237.536
37	39159396 46229 2119206 3295215 358.0284096 549.8 1989 5 10000 9988649.3739864 67415914371.453
37	52962342 12065 3295447 3547380 549.846496687 600.15 519 4492.32483435 7007.5 2984106.6167029 17432478199.339
vector 38 NetK.rte[19] coordX:vector ETV
attr interpolationmode linear
attr source xCoord(mobilityPos(mobilityStateChanged))
attr title "coord X, vector"
38	5545860 44785 0 1185507 0 200.7 2083 9000 9000 18747000 168723000000
38	19628362 37559 1187287 2119050 200.7622832 358 1629 9000 9000 14661000 131949000000
38	39205625 45892 2119206 3295216 358.0284096 549.8 1989 9000 9000 17901000 161109000000
38	52974407 11944 3295447 3547380 549.846496687 600.15 519 9000 9000 4671000 42039000000
vector 39 NetK.rte[19] coordY:vector ETV
attr interpolationmode linear
attr source yCoord(mobilityPos(mobilityStateChanged))
attr title "coord Y, vector"
39	5590645 45139 0 1185507 0 200.7 2083 5 10000 10442656.82425 69569115562.52
39	19665921 37776 1187287 2119050 200.7622832 358 1629 5 10000 7727889.615294 53164558237.536
39	39251517 46229 2119206 3295216 358.0284096 549.8 1989 5 10000 9988649.3739864 67415914371.453
39	52986351 12065 3295447 3547380 549.846496687 600.15 519 4492.32483435 7007.5 2984106.6167029 17432478199.339
vector 40 NetK.rte[20] coordX:vector ETV
attr interpolationmode linear
attr source xCoord(mobilityPos(mobilityStateChanged))
attr title "coord X, vector"
40	5635784 44785 0 1185508 0 200.7 2083 1000 1000 2083000 2083000000
40	19703697 37559 1187287 2119051 200.7622832 358 1629 1000 1000 1629000 1629000000
40	39297746 45892 2119206 3295217 358.0284096 549.8 1989 1000 1000 1989000 1989000000
40	52998416 11944 3295447 3547380 549.846496687 600.15 519 1000 1000 519000 519000000
vector 41 NetK.rte[20] coordY:vector ETV
attr interpolationmode linear
attr source yCoord(mobilityPos(mobilityStateChanged))
attr title "coord Y, vector"
41	5680569 45141 0 1185508 0 200.7 2083 5 10000 10498656.82425 70320390283.808
41	19741256 37773 1187287 2119051 200.7622832 358 1629 5 10000 6845889.615294 40920600987.742
41	39343638 46229 2119206 3295217 358.0284096 549.8 1989 5 10000 9806649.3739864 65373667290.581
41	53010360 12065 3295447 3547380 549.846496687 600.15 519 6492.32483435 9007.5 4022106.6167029 31444904666.151
vector 42 NetK.rte[21] coordX:vector ETV
attr interpolationmode linear
attr source xCoord(mobilityPos(mobilityStateChanged))
attr title "coord X, vector"
42	5725710 44785 0 1185509 0 200.7 2083 3000 3000 6249000 18747000000
42	19779029 37559 1187287 2119052 200.7622832 358 1629 3000 3000 4887000 14661000000
42	39389867 45892 2119206 3295218 358.0284096 549.8 1989 3000 3000 5967000 17901000000
42	53022425 11944 3295447 3547380 549.846496687 600.15 519 3000 3000 1557000 4671000000
vector 43 NetK.rte[21] coordY:vector ETV
attr interpolationmode linear
attr source yCoord(mobilityPos(mobilityStateChanged))
attr title "coord Y, vector"
43	5770495 45141 0 1185509 0 200.7 2083 5 10000 10498656.82425 70320390283.808
43	19816588 37773 1187287 2119052 200.7622832 358 1629 5 10000 6845889.615294 40920600987.742
43	39435759 46229 2119206 3295218 358.0284096 549.8 1989 5 10000 9806649.3739864 65373667290.581
43	53034369 12065 3295447 3547380 549.846496687 600.15 519 6492.32483435 9007.5 4022106.6167029 31444904666.151
vector 44 NetK.rte[22] coordX:vector ETV
attr interpolationmode linear
attr source xCoord(mobilityPos(mobilityStateChanged))
attr title "coord X, vector"
44	5815636 44785 0 1185510 0 200.7 2083 5000 5000 10415000 52075000000
44	19854361 37559 1187287 2119053 200.7622832 358 1629 5000 5000 8145000 40725000000
44	39481988 45892 2119206 3295219 358.0284096 549.8 1989 5000 5000 9945000 49725000000
44	53046434 11944 3295447 3547380 549.846496687 600.15 519 5000 5000 2595000 12975000000
vector 45 NetK.rte[22] coordY:vector ETV
attr interpolationmode linear
attr source yCoord(mobilityPos(mobilityStateChanged))
attr title "coord Y, vector"
45	5860421 45141 0 1185510 0 200.7 2083 5 10000 10498656.82425 70320390283.808
45	19891920 37773 1187287 2119053 200.7622832 358 1629 5 10000 6845889.615294 40920600987.742
45	39527880 46229 2119206 3295219 358.0284096 549.8 1989 5 10000 9806649.3739864 65373667290.581
45	53058378 12065 3295447 3547380 549.846496687 600.15 519 6492.32483435 9007.5 4022106.6167029 31444904666.151
vector 46 NetK.rte[23] coordX:vector ETV
attr interpolationmode linear
attr source xCoord(mobilityPos(mobilityStateChanged))
attr title "coord X, vector"
46	5905562 44785 0 1185511 0 200.7 2083 7000 7000 14581000 102067000000
46	19929693 37559 1187287 2119054 200.7622832 358 1629 7000 7000 11403000 79821000000
46	39574109 45892 2119206 3295220 358.0284096 549.8 1989 7000 7000 13923000 97461000000
46	53070443 11944 3295447 3547380 549.846496687 600.15 519 7000 7000 3633000 25431000000
vector 47 NetK.rte[23] coordY:vector ETV
attr interpolationmode linear
attr source yCoord(mobilityPos(mobilityStateChanged))
attr title "coord Y, vector"
47	5950347 45141 0 1185511 0 200.7 2083 5 10000 10498656.82425 70320390283.808
47	19967252 37773 1187287 2119054 200.7622832 358 1629 5 10000 6845889.615294 40920600987.742
47	39620001 46229 2119206 3295220 358.0284096 549.8 1989 5 10000 9806649.3739864 65373667290.581
47	53082387 12065 3295447 3547380 549.846496687 600.15 519 6492.32483435 9007.5 4022106.6167029 31444904666.151
vector 48 NetK.rte[24] coordX:vector ETV
attr interpolationmode linear
attr source xCoord(mobilityPos(mobilityStateChanged))
attr title "coord X, vector"
48	5995488 44785 0 1185512 0 200.7 2083 9000 9000 18747000 168723000000
48	20005025 37559 1187287 2119055 200.7622832 358 1629 9000 9000 14661000 131949000000
48	39666230 45892 2119206 3295221 358.0284096 549.8 1989 9000 9000 17901000 161109000000
48	53094452 11944 3295447 3547380 549.846496687 600.15 519 9000 9000 4671000 42039000000
vector 49 NetK.rte[24] coordY:vector ETV
attr interpolationmode linear
attr source yCoord(mobilityPos(mobilityStateChanged))
attr title "coord Y, vector"
49	6040273 45141 0 1185512 0 200.7 2083 5 10000 10498656.82425 70320390283.808
49	20042584 37773 1187287 2119055 200.7622832 358 1629 5 10000 6845889.615294 40920600987.742
49	39712122 46229 2119206 3295221 358.0284096 549.8 1989 5 10000 9806649.3739864 65373667290.581
49	53106396 12065 3295447 3547380 549.846496687 600.15 519 6492.32483435 9007.5 4022106.6167029 31444904666.151
vector 50 NetK.rte[0].queue[0] Throughput ETV
50	2889074 969110 1 836476 0 154.157198097 32768 0.25 1 32758.541317386 32753.151576648
50	6085414 212981 836490 1187205 154.159633297 200.7574128 7481 0.99959951942331 1 7480.9427086692 7480.8854267201
50	20080357 579726 1187573 2118938 200.7745456 357.977451532 20215 0.9999483595552 1 20214.977386026 20214.954772529
50	35224959 1024603 2119295 2851550 358.046097315 469.4546096 32768 0.99985069998737 1 32767.763928465 32767.527872837
50	39758351 455144 2851554 3295446 469.4546528 549.846496687 15446 0.9999067280189 1 15445.977086275 15445.954173167
50	53118461 200128 3295452 3547267 549.846539887 600.096113826 6544 0.99991864700937 1 6543.9812356387 6543.9624719156
vector 51 NetK.rte[0].queue[1] Throughput ETV
51	6298395 33440 2 1181513 0 200.6122624 1294 0.25 1 1287.0641884081 1283.607785843
51	20660083 25744 1191429 2017984 200.942605009 346.7100128 928 0.99923722349352 1 927.99331566692 927.98663600197
51	40213495 13898 2288144 3295401 375.0048 549.839106404 506 0.99876339653751 1 505.99054614005 505.9810988999
51	53318589 3231 3420888 3546137 575 600.0602048 117 0.99926847110461 1 116.99672124727 116.99344449123
vector 52 NetK.rte[0].queue[5] Throughput ETV
52	6331835 24790 3 1147096 0 199.871898193 949 0.21428571428571 1 941.15740957866 937.48546284556
52	20685827 128927 1494494 2086552 250 354.71 4048 0.9980879541109 1 4047.4994244213 4046.9991748475
52	40227393 10723 2227680 2992481 368.6100128 499.8103072 389 0.99960668633235 1 388.99864421862 388.99728885465
52	53321820 7260 3296723 3546141 550.012 600.0602048 261 0.99981457444836 1 260.99945175247 260.99890360518
vector 53 NetK.rte[1].queue[0] Throughput ETV
53	1806975 1082099 31 828908 0 153.196885568 32768 0.375 1 32760.827513838 32754.753560697
53	6356625 291393 828920 1187199 153.199320768 200.7574128 8107 0.99950872021616 1 8106.6690543406 8106.3381623128
53	20814754 748118 1187567 2118955 200.7745456 357.979886732 20382 0.99979307490688 1 20381.54253815 20381.085106672
53	36249562 1225204 2119290 2856032 358.046097315 470.025628651 32768 0.99975828817139 1 32767.257861218 32766.51577421
53	40238116 558047 2856036 3295447 470.025671851 549.846496687 15123 0.99978903621193 1 15122.737735011 15122.47548912
53	53329080 210493 3295453 3547260 549.846539887 600.096070626 6396 0.99990283114703 1 6395.9672253827 6395.9344516997
vector 54 NetK.rte[5].queue[3] Throughput ETV
54	6648018 6114 32 490252 0 99.5101152 254 0.5 1 252.99438202247 252.3776844955
54	21562872 18395 1353339 2116329 225 357.742756134 667 0.99409681227863 1 666.96030721816 666.92077425145
54	40796163 7990 2119386 2701909 358.054226777 449.974866829 290 0.99904942965779 1 289.99904942966 289.9980997629
54	53539573 5231 3298421 3543702 550.048248 600.01 190 0.99926847110461 1 189.99853747695 189.99707602339
vector 55 NetK.rte[24].queue[5] Throughput ETV
55	6654132 27235 33 1149373 0 200.033917157 1006 0.42857142857143 1 1003.5032890513 1001.6546955676
55	21581267 18847 1355859 1906990 225.0456 324.838481609 676 1 1 676 676
55	40804153 6281 2416330 3287965 400 548.6100128 231 0.99883245767659 1 230.99333707024 230.98667920975
55	53544804 860 3296151 3546917 550 600.0676528 34 0.99947889525795 1 33.998959684458 33.997919910047
vector 56 NetK.rte[0].queue[2] Throughput ETV
56	6681367 15193 42 1156147 0 200.1488 607 0.36363636363636 1 603.75811832815 602.06456416599
56	21600114 1749 1205737 2017985 202.7100128 346.7100128 69 0.99850746268657 1 68.997017149721 68.994038748142
56	40810434 7663 2288378 3271650 375.013131925 545.5100128 282 0.99723374827109 1 281.98215660063 281.96434704571
56	53545664 16684 3299471 3546138 550.169940839 600.0602048 603 0.99923430321593 1 602.99923430322 602.99846919272
vector 57 NetK.rte[0].queue[4] Throughput ETV
57	6696560 48306 45 1156149 0 200.1488 1817 0.33333333333333 1 1813.2756415771 1811.4125812284
57	21601863 16770 1205739 2086551 202.7100128 354.71 602 0.99792207792208 1 601.9766279762 601.95329348278
57	40818097 4893 2217559 3134861 367.689537287 520.01 180 0.99961479198767 1 179.99961479199 179.99922973236
57	53562348 19346 3296073 3546140 550 600.0602048 678 0.9961788307222 1 677.92020474418 677.8406128437
vector 58 NetK.rte[0].queue[3] Throughput ETV
58	6744866 36577 54 1156148 0 200.1488 1380 0.33333333333333 1 1376.1017252537 1374.0722496506
58	21618633 3745 1205738 2086550 202.7100128 354.71 139 0.99801455989411 1 138.99602911979 138.99206437153
58	40822990 24430 2217558 3134860 367.689537287 520.01 880 0.99813548788067 1 879.99144739757 879.98290482557
58	53581694 6531 3296070 3547351 550 600.124742573 236 0.99958385351644 1 235.99837212636 235.99674491607
vector 59 NetK.rte[9].queue[3] Throughput ETV
59	6781443 6902 64 1154694 0 200.132 277 0.16666666666667 1 265.0873089353 259.99793613544
59	21622378 17536 1205734 2116332 202.7100128 357.742756134 637 0.9965034965035 1 636.99064268119 636.98131046257
59	40847420 7854 2119389 2992177 358.054226777 499.8102048 284 0.99916597164304 1 283.99916597164 283.99833263889
59	53588225 4595 3297688 3542925 550.0241024 599.970807882 165 1 1 165 165
vector 60 NetK.rte[9].queue[2] Throughput ETV
60	6788345 18600 72 1151508 0 200.0744352 724 0.4 1 720.19068847819 717.97273437
60	21639914 14784 1205733 2038088 202.7100128 350.1250048 531 0.99312123817713 1 530.94258269266 530.8854221718
60	40855274 3809 2149432 3154214 360.61 522.8100128 143 0.99927693420101 1 142.9992769342 142.99855439123
60	53592820 7326 3296668 3546655 550.012 600.0651072 265 1 1 265 265
vector 61 NetK.rte[9].queue[5] Throughput ETV
61	6806945 11670 73 1033464 0 183.91 453 0.5 1 451.09888888889 449.88224814815
61	21654698 16978 1353351 2034647 225 350.0100128 615 1 1 615 615
61	40859083 8236 2289368 3217630 375.0432 533.400813059 301 0.99909173478656 1 300.99909173479 300.99818429452
61	53600146 337 3421380 3546493 575.0048 600.0628096 14 1 1 14 14
vector 62 NetK.rte[18].queue[0] Throughput ETV
62	6818615 25113 88 1149377 0 200.033917157 938 0.33333333333333 1 934.59788298908 932.80263193086
62	21671676 124808 1358086 2117624 225.131389954 357.851746146 3580 0.99506505159264 1 3577.066982885 3574.1418829112
62	40867319 34641 2119504 3295165 358.06140202 549.794584023 1245 0.99882075471698 1 1244.9937583126 1244.987520702
62	53600483 4356 3295708 3420702 549.936592713 574.873777043 157 0.9998274076631 1 156.99982740766 156.99965484511
vector 63 NetK.rte[4].queue[0] Throughput ETV
63	6843728 22369 103 1151515 0 200.0744352 869 0.75 1 868.74431095121 868.55113341398
63	21796484 59618 1355146 2118687 225.033716658 357.955513519 2130 0.99235314563782 1 2129.8950460439 2129.790632026
63	40901960 130461 2119396 3294814 358.054226777 549.65326662 4083 0.99784017278618 1 4082.7784173037 4082.5568918969
63	53604839 10033 3296480 3544764 550.0072 600.028576232 363 1 1 363 363
vector 64 NetK.rte[20].queue[0] Throughput ETV
64	6866097 29212 104 1147176 0 199.879444435 1080 0.91304347826087 1 1077.7980531133 1075.710095154
64	21856102 3337 1495407 2037634 250.0216 350.1106048 117 0.98740554156171 1 116.87495296009 116.750958579
64	41032421 31331 2149402 2993000 360.61 499.931566833 1126 0.99789029535865 1 1125.9917225364 1125.9834573992
64	53614872 10571 3296078 3544523 550 600.0216 377 0.9974293059126 1 376.97988890405 376.95981571586
vector 65 NetK.rte[5].queue[0] Throughput ETV
65	6895309 32494 105 1181507 0 200.6122624 1264 0.5 1 1262.4378410956 1261.4296919721
65	21859439 27505 1191423 2059768 200.942605009 352.1100128 982 0.99413646055437 1 981.89832127345 981.79705215545
65	41063752 12619 2227666 3295396 368.6100128 549.839106404 462 0.99924528301887 1 461.99848697215 461.99697480142
65	53625443 2709 3296727 3546106 550.012 600.0602048 100 1 1 100 100
vector 66 NetK.rte[14].queue[4] Throughput ETV
66	6927803 13184 106 1145328 0 199.634377206 524 0.42857142857143 1 522.17519305019 521.14567812607
66	21886944 19430 1353703 2034080 225.0048 349.93612584 691 0.96697247706422 1 690.65375780711 690.31500647101
66	41076371 6824 2416934 2992243 400.0168 499.8102048 250 0.99918566775244 1 249.99837595115 249.99675322108
66	53628152 19953 3296090 3420744 550 574.876212243 711 0.99593495934959 1 710.96347777176 710.92707178791
vector 67 NetK.rte[13].queue[5] Throughput ETV
67	6940987 14881 107 1187228 0 200.759848 564 0.14285714285714 1 552.59641143457 547.89301521346
67	21906374 7207 1187316 1352932 200.7647616 224.951485737 263 1 1 263 263
67	41083195 17627 2288634 3295169 375.021774936 549.796976023 607 0.9918533604888 1 606.84436274409 606.68939924469
67	53648105 18033 3295694 3545251 549.936549513 600.0337024 636 0.99544419134396 1 635.95679827159 635.91371321598
vector 68 NetK.rte[13].queue[4] Throughput ETV
68	6955868 19430 109 1187229 0 200.759848 700 0.16666666666667 1 690.9808719795 686.9478919406
68	21913581 58230 1187317 1735107 200.7647616 299.840698356 2075 0.99153567110036 1 2074.8596204305 2074.7198361031
68	41100822 30312 2288338 3295073 375.012 549.769960409 1086 0.99250267761514 1 1085.9023718356 1085.8052252805
68	53666138 11030 3295577 3543923 549.88071889 600.010226922 379 0.99434883123555 1 378.80318762068 378.60732539955
vector 69 NetK.rte[13].queue[2] Throughput ETV
69	6975298 23721 112 1168351 0 200.3600736 882 0.13636363636364 1 869.35246171036 863.79578609141
69	21971811 40560 1215288 2115976 203.75111469 357.693791852 1453 0.98998887652948 1 1452.928652232 1452.8577237365
69	41131134 40859 2119508 3271473 358.06140202 545.460583833 1463 0.99940968122786 1 1462.9932081149 1462.9864186932
69	53677168 634 3426706 3546763 575.550010729 600.0675504 23 1 1 23 23
vector 70 NetK.rte[13].queue[1] Throughput ETV
70	6999019 35881 119 1186520 0 200.7224176 1369 0.2 1 1362.4512646444 1359.4717607099
70	22012371 13981 1188319 2117946 200.8016672 357.893639054 501 0.99658314350797 1 500.98558376355 500.97119936198
70	41171993 17064 2119604 3295047 358.068526155 549.734888772 617 0.99910674408218 1 616.99731682709 616.99463525304
70	53677802 6941 3296139 3547090 550 600.0750928 251 1 1 251 251
vector 71 NetK.rte[13].queue[3] Throughput ETV
71	7034900 25585 123 1156622 0 200.1561024 961 0.16666666666667 1 952.41065396099 948.8036582329
71	22026352 111842 1205753 2117630 202.7100128 357.851746146 3744 0.99615938550168 1 3743.6317389216 3743.2638801641
71	41189057 35294 2119507 3295161 358.06140202 549.794584023 1279 0.99979899497487 1 1278.9988547737 1278.9977097662
71	53684743 4632 3295705 3546764 549.936592713 600.0675504 169 1 1 169 169
vector 72 NetK.rte[19].queue[5] Throughput ETV
72	7060485 6887 149 1186729 0 200.7291616 278 0.375 1 274.94862939209 273.21865174128
72	22138194 13246 1188010 2003632 200.7917808 343.8102048 477 0.99624765478424 1 476.99118999479 476.98240279428
72	41224351 19961 2287883 3154376 375 522.8101152 722 0.99605781865966 1 721.99211563732 721.98425544921
72	53689375 203 3545583 3547339 600.0432 600.124742573 8 1 1 8 8
vector 73 NetK.rte[7].queue[0] Throughput ETV
73	7067372 55040 150 1187235 0 200.759848 2062 0.3 1 2058.023943243 2055.9608368604
73	22151440 84253 1187323 2117718 200.7647616 357.871771685 3025 0.99766355140187 1 3024.9869671485 3024.9739511585
73	41244312 62987 2119966 3170775 358.10815123 524.779436791 2251 0.99904541115505 1 2250.9916823597 2250.9833680953
73	53689578 29448 3299406 3547106 550.157896102 600.076243426 1050 0.99986589781413 1 1049.9973247772 1049.9946498956
vector 74 NetK.rte[14].queue[0] Throughput ETV
74	7122412 19340 151 1154286 0 200.1249728 755 0.42857142857143 1 753.25744305914 752.16009385869
74	22235693 14268 1262514 1907501 210.81 324.943436907 505 0.97632468996618 1 504.67821876671 504.36171554636
74	41307299 3972 2538881 3172496 425.106201587 525.0024 139 0.98703170028818 1 138.87104990807 138.74321211245
74	53719026 7407 3296231 3546442 550.0024 600.0628096 266 0.9985754985755 1 265.99644026726 265.99288509662
vector 75 NetK.rte[18].queue[1] Throughput ETV
75	7141752 14299 152 1156314 0 200.1490048 550 0.33333333333333 1 546.64290651114 544.89332717228
75	22249961 30486 1262525 2034103 210.81 349.939809514 1098 0.99811853245532 1 1097.9926854575 1097.985380869
75	41311271 23942 2288042 3295258 375.003873414 549.815324833 865 0.99888268156425 1 864.9951106924 864.99022480927
75	53726433 8233 3295709 3546885 549.936592713 600.0676528 290 0.99731903485255 1 289.97613790439 289.95231722724
vector 76 NetK.rte[20].queue[3] Throughput ETV
76	7156051 35954 161 1155297 0 200.1369024 1348 0.75 1 1346.8619265635 1345.8613744307
76	22280447 3008 1242814 2037860 207.8100128 350.1130048 109 0.99861878453039 1 108.9965483905 108.9931001176
76	41335213 25548 2149404 2993043 360.61 499.980154585 908 0.98926767676768 1 907.76347078663 907.52868244088
76	53734666 7107 3296174 3547345 550 600.124742573 244 0.99455383326351 1 243.90498410227 243.81033564093
vector 77 NetK.rte[17].queue[0] Throughput ETV
77	7192005 24811 176 1156309 0.0000128 200.1490048 923 0.916 1 921.79409857268 920.65226175923
77	22283455 40337 1301617 2118636 217.51 357.951424454 1437 0.99584415584416 1 1436.9488625416 1436.8978566518
77	41360761 224299 2120009 3292619 358.11 549.227831381 7002 0.99798860207844 1 7001.1584347629 7000.3175029969
77	53741773 10987 3296152 3547078 550 600.0750928 397 0.9998943364328 1 396.99968932387 396.99937867992
vector 78 NetK.rte[17].queue[1] Throughput ETV
78	7216816 27460 177 1156310 0.0000128 200.1490048 1041 0.97218358831711 1 1040.2379610325 1039.4890744764
78	22323792 2315 1301618 2118160 217.51 357.91366682 88 0.99908925318761 1 87.998184275812 87.996370200068
78	41585060 22863 2120010 3170435 358.11 524.745672838 824 0.99890889252591 1 823.99727074106 823.99454356714
vector 79 NetK.rte[17].queue[2] Throughput ETV
79	7244276 15534 178 1156311 0.0000128 200.1490048 609 0.97727272727273 1 608.97228321466 608.94509125765
79	22326107 31819 1301619 2074294 217.51 353.4100128 1130 0.99105812220566 1 1129.8110080224 1129.623091379
79	41607923 24946 2120011 3295306 358.11 549.817716833 892 0.99640657084189 1 891.94671899423 891.89356272162
79	53752760 8121 3295714 3546693 549.936592713 600.0675504 297 0.99963596650892 1 296.99963596651 296.99927206554
vector 80 NetK.rte[17].queue[4] Throughput ETV
80	7259810 31225 179 1172128 0.0000128 200.432608726 1156 0.95652173913043 1 1155.5917493452 1155.1911412489
80	22357926 12364 1193048 2036647 201.074438555 350.0673024 451 0.99934725848564 1 450.99869621682 450.99739328356
80	41632869 37574 2288899 3295262 375.0288 549.815324833 1340 0.99459459459459 1 1339.9042842504 1339.8089152663
80	53760881 18288 3299165 3541970 550.097627183 599.796247643 654 0.99797746316094 1 653.99190985264 653.98383139287
vector 81 NetK.rte[17].queue[5] Throughput ETV
81	7291035 54669 180 1148515 0.0000128 200.01 2030 0.98428571428571 1 2029.6508384396 2029.3050842465
81	22370290 12593 1604025 2036648 275.344730609 350.0673024 454 1 1 454 454
81	41670443 21227 2535521 2994602 425.0100128 500.046174444 763 0.99879759519038 1 762.99521644192 762.99043671818
81	53779169 17325 3296091 3547077 550 600.0750928 619 0.99789915966387 1 618.99044041029 618.98089376565
vector 82 NetK.rte[12].queue[0] Throughput ETV
82	7345704 46213 182 1151332 0.0000128 200.069936 1726 0.6 1 1724.5257522607 1723.4244874105
82	22382883 64067 1353819 2117712 225.0072 357.871771685 2299 0.99677245831092 1 2298.9846436573 2298.9693243874
82	41691670 22713 2119610 3271146 358.068526155 545.4102048 817 0.99825327510917 1 816.99165914901 816.98332813884
82	53796494 21528 3299400 3546704 550.157896102 600.0675504 770 0.99718649517685 1 769.97329693521 769.94664962521
vector 83 NetK.rte[12].queue[2] Throughput ETV
83	7391917 34940 183 1186524 0.0000128 200.7224176 1333 0.6 1 1331.2743945366 1329.9274499793
83	22446950 13963 1188323 2117950 200.8016672 357.893639054 502 0.99527346387576 1 501.9810938555 501.96225153999
83	41714383 17163 2119609 3295052 358.068526155 549.734888772 618 0.99702380952381 1 617.9880952381 617.97621578393
83	53818022 7379 3297846 3547084 550.029048 600.0750928 251 0.99717285945073 1 250.95351749013 250.90712805281
vector 84 NetK.rte[12].queue[3] Throughput ETV
84	7426857 23194 184 1156042 0.0000128 200.1488 867 0.6 1 865.59395934453 864.56021850742
84	22460913 39939 1262522 2118640 210.81 357.951424454 1437 1 1 1437 1437
84	41731546 236864 2120019 3292614 358.11 549.227831381 6674 0.99672489082969 1 6672.1649040349 6670.3320412716
84	53825401 10881 3298301 3547083 550.048 600.0750928 395 1 1 395 395
vector 85 NetK.rte[12].queue[4] Throughput ETV
85	7450051 36370 185 1156043 0.0000128 200.1488 1377 0.6 1 1375.4600514129 1374.2965956432
85	22500852 10397 1262523 2115891 210.81 357.676009408 379 1 1 379 379
85	41968410 24570 2119711 3292613 358.074005717 549.227831381 871 0.99631966351209 1 870.9391131455 870.87836313076
85	53836282 5471 3298302 3546708 550.048 600.0675504 198 1 1 198 198
vector 86 NetK.rte[12].queue[5] Throughput ETV
86	7486421 20545 186 1156044 0.0000128 200.1488 786 0.6 1 784.56951981772 783.51158919613
86	22511249 5188 1262524 2118376 210.81 357.926005634 197 1 1 197 197
86	41992980 32404 2119700 3271149 358.073962517 545.4102048 1163 0.99505649717514 1 1162.956372026 1162.9128863338
86	53841753 832 3298303 3546709 550.048 600.0675504 34 1 1 34 34
vector 87 NetK.rte[21].queue[1] Throughput ETV
87	7506966 3396 188 1186718 0.0000128 200.7291616 140 1 1 140 140
87	22516437 13402 1187999 2086554 200.7917808 354.71 493 0.9974358974359 1 492.99743589744 492.99487836949
87	42025384 10815 2120061 3271657 358.11 545.5100128 397 0.9969450101833 1 396.98242495166 396.96489094355
87	53842585 407 3297216 3544951 550.0168432 600.03144 17 1 1 17 17
vector 88 NetK.rte[24].queue[0] Throughput ETV
88	7510362 17945 190 1185664 0.0000128 200.702360197 703 0.6 1 702.03215357596 701.36429314201
88	22529839 33193 1189825 2005685 200.864122147 344.0100128 1186 0.99081364829396 1 1185.9319874611 1185.8642658171
88	42036199 5913 2306380 3154244 377.8100128 522.8100128 213 0.99894459102902 1 212.99348102327 212.98696735567
88	53842992 7369 3296390 3547333 550.005016334 600.124742573 268 0.99957482993197 1 267.99957482993 267.99914984063
vector 89 NetK.rte[24].queue[1] Throughput ETV
89	7528307 31050 191 1156159 0.0000128 200.1488 1171 0.6 1 1169.3976997377 1168.109384257
89	22563032 24429 1205741 2074365 202.7100128 353.4100128 881 0.99835390946502 1 880.98757459641 880.97516015925
89	42042112 5999 2120078 3287963 358.11 548.6100128 223 0.99903474903475 1 222.98978305482 222.97957349763
89	53850361 22718 3296450 3546915 550.0072 600.0676528 802 0.99746192893401 1 801.95376829814 801.90761463175
vector 90 NetK.rte[24].queue[4] Throughput ETV
90	7559357 24292 192 1147102 0.0000128 199.871898193 937 0.6 1 935.85072895987 935.00642212691
90	22587461 126822 1494942 2074368 250.0096 353.4100128 4060 0.98847457627119 1 4059.441639918 4058.8845813873
90	42048111 11695 2120081 2992579 358.11 499.8103072 425 0.99960668633235 1 424.99658314977 424.99316737812
90	53873079 8135 3296546 3422707 550.0096 575.0456 291 0.99963174369361 1 290.99729818759 290.9945971207
vector 91 NetK.rte[8].queue[0] Throughput ETV
91	7583649 41893 195 1156121 0.0000128 200.1488 1582 0.75 1 1581.5180689581 1581.1387416578
91	22714283 147655 1205713 2036200 202.7100128 350.0504 5296 0.99983285976935 1 5295.998800411 5295.9976010023
91	42059806 162085 2149427 3294406 360.61 549.575239768 5808 0.9983971790351 1 5807.977710801 5807.9554430823
91	53881214 11342 3297211 3546091 550.0168432 600.0602048 410 1 1 410 410
vector 92 NetK.rte[8].queue[1] Throughput ETV
92	7625542 23530 196 971539 0.0000128 174.956609838 914 0.75 1 913.50788194784 913.11849768729
92	22861938 1565 1495141 1729386 250.0168 298.5102176 60 0.99897435897436 1 59.998974358974 59.997949769888
92	42221891 52922 2289418 3294405 375.0432 549.575239768 1890 0.99520958083832 1 1889.9403248026 1889.8808309961
92	53892556 8968 3421498 3547314 575.0049024 600.124742573 316 0.99798387096774 1 315.98615402365 315.97232783437
vector 93 NetK.rte[8].queue[5] Throughput ETV
93	7649072 13694 197 1145323 0.0000128 199.634377206 543 0.75 1 542.35151238183 541.82509672147
93	22863503 19428 1354688 2034639 225.024116658 350.0100128 702 0.99830508474576 1 701.99830508475 701.99661304223
93	42274813 6457 2416837 2798673 400.0144 461.7102048 235 0.99920634920635 1 234.99920634921 234.99841332829
93	53901524 20199 3296161 3420739 550 574.876212243 723 0.9993288590604 1 722.99413698021 722.98827779553
vector 94 NetK.rte[6].queue[1] Throughput ETV
94	7662766 13985 206 1187271 0.0000128 200.759848 545 0.66666666666667 1 543.61753757111 542.58100425123
94	22882931 9281 1187359 2074339 200.7647616 353.4100128 341 0.99848254931715 1 340.9959416913 340.99188894918
94	42281270 5904 2120052 3294300 358.11 549.563804821 216 0.99888017917133 1 215.99888017917 215.99776161234
94	53921723 4269 3295741 3419134 549.939467642 574.546171869 155 0.99920445505171 1 154.99920445505 154.998409543
vector 95 NetK.rte[6].queue[2] Throughput ETV
95	7676751 132638 207 1184248 0.0000128 200.674541279 4577 0.66666666666667 1 4575.2617552416 4573.8698453933
95	22892212 15785 1191389 2074340 200.942605009 353.4100128 575 0.99979101358412 1 574.99939632725 574.99879277607
95	42287174 13988 2120053 3271653 358.11 545.5100128 507 0.99980713596914 1 506.99925315904 506.9985064576
95	53925992 789 3296774 3547371 550.012 600.140590228 30 0.99982388164847 1 29.999648011089 29.999296084127
vector 96 NetK.rte[6].queue[4] Throughput ETV
96	7809389 47626 208 1156070 0.0000128 200.1488 1806 0.66666666666667 1 1804.585002493 1803.5180272229
96	22907997 17718 1242819 2074342 207.8100128 353.4100128 642 0.99670510708402 1 641.97945930247 641.95895927431
96	42301162 5639 2120055 3271654 358.11 545.5100128 210 0.99959415584416 1 209.99919511355 209.99839055104
96	53926781 18344 3296776 3546768 550.012 600.0675504 661 0.99969604863222 1 660.99939466225 660.99878950773
vector 97 NetK.rte[6].queue[5] Throughput ETV
97	7857015 35897 209 799221 0.0000128 150.0073024 1359 0.66666666666667 1 1357.558408238 1356.4648347335
97	22925715 9300 1353559 2115894 225.0024 357.676009408 334 1 1 334 334
97	42306801 22917 2119714 3292608 358.074005717 549.227831381 825 1 1 825 825
97	53945125 5741 3420931 3546769 575 600.0675504 209 0.99963316214233 1 208.99963316214 208.99926645885
vector 98 NetK.rte[7].queue[1] Throughput ETV
98	7892912 144290 222 1184251 0.0000128 200.674541279 4676 0.5 1 4673.0938171142 4670.971934197
98	22935015 15179 1191392 2074337 200.942605009 353.4100128 540 0.99862068965517 1 539.98779181532 539.97559473738
98	42329718 13576 2120199 2700417 358.11058643 449.71533457 484 0.99873371924747 1 483.98999660538 483.98000214684
98	53950866 597 3298494 3547375 550.0504 600.140590228 22 0.99964973730298 1 21.999474605954 21.998949365264
vector 99 NetK.rte[7].queue[2] Throughput ETV
99	8037202 25192 223 1136571 0.0000128 198.51 972 0.5 1 969.27632820216 967.36065536554
99	22950194 1880 1494915 1729073 250.0096 298.5100128 70 0.99897959183673 1 69.996069562275 69.992142988767
99	42343294 53942 2291291 3294400 375.07877775 549.575239768 1910 0.98455882352941 1 1909.6627692664 1909.329159952
99	53951463 9337 3297112 3547311 550.0168 600.124742573 335 0.99908564462054 1 334.99786575915 334.99573291216
vector 100 NetK.rte[7].queue[3] Throughput ETV
100	8062394 47964 224 1151264 0.0000128 200.0697312 1721 0.5 1 1718.8256253938 1717.4335429512
100	22952074 66397 1354236 2117717 225.0144 357.871771685 2303 0.99952785646837 1 2302.9983014538 2302.996603634
100	42397236 23622 2119615 3271764 358.068526155 545.5101152 824 0.99977121940059 1 823.99914624592 823.9982926744
100	53960800 22528 3297113 3542995 550.0168 599.973286282 762 0.99851245816289 1 761.96738986258 761.93480902694
vector 101 NetK.rte[7].queue[4] Throughput ETV
101	8110358 40166 225 1178602 0.0000128 200.55528 1483 0.5 1 1480.7400922648 1479.2657862152
101	23018471 19345 1188549 2117414 200.80950898 357.833801442 672 0.99647177419355 1 671.97419251313 671.94843848513
101	42420858 59195 2119616 3295077 358.068526155 549.769960409 2055 0.99813928761297 1 2054.9788437757 2054.957713237
101	53983328 14507 3295570 3546758 549.88071889 600.0675504 487 0.99716580066131 1 486.90868189138 486.81757109951
vector 102 NetK.rte[7].queue[5] Throughput ETV
102	8150524 16888 226 1187234 0.0000128 200.759848 613 0.5 1 610.89660739197 609.5740827698
102	23037816 60389 1187322 1735104 200.7647616 299.840698356 2067 0.99479166666667 1 2066.8652889446 2066.7309784953
102	42480053 29981 2292032 3295076 375.11626223 549.769960409 1034 0.99783482833282 1 1033.9769061394 1033.9538445457
102	53997835 10087 3295571 3543839 549.88071889 600.0101024 353 0.99973154362416 1 352.99973154362 352.99946315932
vector 103 NetK.rte[16].queue[2] Throughput ETV
103	8167412 27197 284 1156127 0.0000128 200.1488 1024 0.98625429553265 1 1023.9622110813 1023.9247881616
103	23098205 3272 1324234 2118154 220.61 357.91366682 123 0.99908088235294 1 122.99908088235 122.99816260948
103	42510034 24914 2120022 3270935 358.11 545.4100128 873 0.9991789819376 1 872.99731045126 872.99462275766
103	54007922 324 3297128 3546797 550.0168 600.0675504 13 1 1 13 13
vector 104 NetK.rte[18].queue[2] Throughput ETV
104	8194609 20159 287 1156315 0.0000128 200.1490048 746 0.66666666666667 1 744.48786912577 743.31845012367
104	23101477 17078 1262526 2074429 210.81 353.4101152 598 0.99874529485571 1 597.99674114704 597.99348599961
104	42534948 13167 2120027 3154173 358.11 522.8100128 449 0.98966230186079 1 448.76126263353 448.5243296595
104	54008246 329 3298305 3546886 550.048 600.0676528 12 0.99944506104329 1 11.999445061043 11.998890430044
vector 105 NetK.rte[18].queue[3] Throughput ETV
105	8214768 5192 288 1151205 0.0000128 200.0697024 198 0.66666666666667 1 196.48809639471 195.31780085102
105	23118555 16197 1353401 2118369 225 357.926005634 557 0.93488372093023 1 556.27445381588 555.58145506225
105	42548115 27315 2123403 3287959 358.405712827 548.6100128 943 0.98856548856549 1 942.80534007161 942.61233350459
105	54008575 4928 3299974 3546887 550.292005008 600.0676528 171 0.9994640943194 1 170.99946409432 170.99892847583
vector 106 NetK.rte[18].queue[5] Throughput ETV
106	8219960 29380 289 1156316 0.0000128 200.1490048 1068 0.66666666666667 1 1066.4402310581 1065.2218626993
106	23134752 23044 1262527 2074431 210.81 353.4101152 788 0.99534264803726 1 787.88970891011 787.77980434649
106	42575430 8323 2120029 3287960 358.11 548.6100128 299 0.99893786510887 1 298.99158187353 298.98316947134
106	54013503 1415 3296386 3546888 550.005016334 600.0676528 51 0.99953767914933 1 50.997257679774 50.994516612976
vector 107 NetK.rte[11].queue[4] Throughput ETV
107	8249340 2441 290 1156307 0.0000128 200.1490048 100 0.96296296296296 1 99.908473228275 99.819538583546
107	23157796 16333 1282234 2118727 214.31 357.955513519 575 0.99838187702265 1 574.99528350181 574.99057442191
107	42583753 17010 2132343 3293512 359.169757248 549.426535272 595 0.99168975069252 1 594.93653016863 594.87344525657
107	54014918 814 3297116 3546761 550.0168 600.0675504 32 1 1 32 32
vector 108 NetK.rte[23].queue[2] Throughput ETV
108	8251781 30690 291 1155611 0.0000128 200.139448 1130 0.66666666666667 1 1128.8839428872 1127.9969889814
108	23174129 24540 1205743 2036260 202.7100128 350.0505024 848 0.99417152373022 1 847.94131024064 847.88281289032
108	42600763 6819 2149365 3287933 360.61 548.6100128 242 0.99353647276085 1 241.9395991689 241.87944614489
108	54015732 24396 3296097 3546968 550 600.0677552 837 0.99196787148594 1 836.88544723079 836.77154561032
vector 109 NetK.rte[20].queue[1] Throughput ETV
109	8282471 2510 318 1186723 0.0000128 200.7291616 96 0.85714285714286 1 95.732142857143 95.500318877551
109	23198669 12155 1188004 2020879 200.7917808 347.42579977 424 0.99529411764706 1 423.98996498599 423.97996651136
109	42607582 9872 2217552 3135140 367.689537287 520.0101024 345 0.99870298313878 1 344.99519420801 344.99039420211
109	54040128 553 3296337 3545665 550.0048 600.0456 22 1 1 22 22
vector 110 NetK.rte[20].queue[2] Throughput ETV
110	8284981 3041 319 1155296 0.0000128 200.1369024 123 0.90909090909091 1 122.80484897047 122.62128095141
110	23210824 6777 1242813 2037635 207.8100128 350.1106048 244 0.99310344827586 1 243.98965517241 243.97936979786
110	42617454 24806 2149403 3271663 360.61 545.5100128 868 0.99879807692308 1 867.99797638424 867.99595488827
110	54040681 7294 3296336 3545666 550.0048 600.0456 256 0.99929178470255 1 255.9992917847 255.99858407097
vector 111 NetK.rte[20].queue[4] Throughput ETV
111	8288022 19082 321 1155298 0.0000128 200.1369024 701 0.28571428571429 1 694.09658001299 690.39671308279
111	23217601 9800 1242815 2020880 207.8100128 347.42579977 345 0.99803921568627 1 344.99705882353 344.9941224529
111	42642260 7730 2418218 3271664 400.0433024 545.5100128 274 0.99912891986063 1 273.99912891986 273.9982585985
111	54047975 7495 3296263 3544323 550.0024 600.0192 261 0.99810246679317 1 260.99174194802 260.98349554206
vector 112 NetK.rte[20].queue[5] Throughput ETV
112	8307104 7266 322 1186724 0.0000128 200.7291616 280 0.96551724137931 1 279.86515715117 279.73311573648
112	23227401 14561 1188005 2037637 200.7917808 350.1106048 512 0.99644128113879 1 511.99466192171 511.98933967402
112	42649990 20699 2149405 2993042 360.61 499.980154585 720 0.99393939393939 1 719.98037984861 719.9608415397
112	54055470 247 3544385 3547344 600.0193024 600.124742573 9 0.99934123847167 1 8.9993412384717 8.9986829109101
vector 113 NetK.rte[19].queue[0] Throughput ETV
113	8314370 22675 323 1187222 0.0000128 200.759848 834 0.6 1 832.56382999013 831.50518094039
113	23241962 119108 1187294 2074359 200.7622832 353.4100128 3524 0.99471264367816 1 3523.1944810236 3522.389824017
113	42670689 33101 2120072 3154372 358.11 522.8101152 1145 0.99839926823691 1 1144.9811233025 1144.9622674556
113	54055717 106 3296394 3362856 550.005016334 563.6100128 4 1 1 4 4
vector 114 NetK.rte[19].queue[1] Throughput ETV
114	8337045 19476 324 799072 0.0000128 150.006348202 713 0.6 1 711.22087432797 709.83601116959
114	23361070 16430 1416437 2003629 235.076004637 343.8102048 571 0.99730820995962 1 570.99384720643 570.98770586293
114	42703790 10356 2287901 3154373 375 522.8101152 363 1 1 363 363
114	54055823 450 3296764 3546774 550.012 600.0675504 18 1 1 18 18
vector 115 NetK.rte[19].queue[2] Throughput ETV
115	8356521 23605 325 1185739 0.0000128 200.7038112 748 0.6 1 745.6353136965 743.65251287625
115	23377500 33629 1189828 2074360 200.864122147 353.4100128 1167 0.99858256555634 1 1166.9876108035 1166.9752340038
115	42714146 6770 2120073 3270756 358.11 545.41 244 1 1 244 244
115	54056273 6986 3296393 3547338 550.005016334 600.124742573 243 1 1 243 243
vector 116 NetK.rte[19].queue[3] Throughput ETV
116	8380126 12748 326 1149877 0.0000128 200.0456 461 0.6 1 458.6649141693 456.74079952929
116	23411129 10165 1353560 2003631 225.0024 343.8102048 345 0.95491803278689 1 344.39112580193 343.79940298286
116	42720916 12662 2417669 3154375 400.0265024 522.8101152 439 0.99195979899497 1 438.92897388373 438.85833848848
116	54063259 181 3545459 3546776 600.036 600.0675504 7 1 1 7 7
vector 117 NetK.rte[19].queue[4] Throughput ETV
117	8392874 18275 327 1187223 0.0000128 200.759848 640 0.6 1 636.78554671062 634.00429179909
117	23421294 8114 1187311 1729372 200.7647616 298.5102176 285 0.99782844733985 1 284.99332494246 284.98665967838
117	42733578 19145 2287885 3295157 375 549.794584023 653 0.978886756238 1 652.68771976698 652.3793690105
117	54063440 18086 3295697 3544419 549.936549513 600.0193024 627 1 1 627 627
vector 118 NetK.rte[3].queue[0] Throughput ETV
118	8411149 80898 336 1154952 0.0000128 200.1345024 2916 0.9758064516129 1 2915.7475040612 2915.4986034881
118	23429408 30131 1205935 2119142 202.720045282 358.017083715 1043 0.9996750081248 1 1042.9964313045 1042.9928637667
118	42752723 31477 2119278 3235494 358.046097315 537.990795551 1083 0.99849007765315 1 1082.981955873 1082.9639294805
118	54081526 16044 3296577 3543007 550.0096 599.973286282 557 0.99980194097841 1 556.99980194098 556.99960392118
vector 119 NetK.rte[3].queue[1] Throughput ETV
119	8492047 24630 337 1155112 0.0000128 200.1367072 915 0.91463414634146 1 914.37028923673 913.7720479513
119	23459539 64133 1205702 2118690 202.7100128 357.955513519 2207 0.97895791583166 1 2206.7162329396 2206.436233489
119	42784200 124600 2119401 3294789 358.054226777 549.65083142 3988 0.9968134414832 1 3987.8148761118 3987.6298552956
119	54097570 10537 3296469 3544769 550.0072 600.028576232 368 0.99985953083298 1 367.99985953083 367.9997190814
vector 120 NetK.rte[3].queue[2] Throughput ETV
120	8516677 41892 338 1155113 0.0000128 200.1367072 1522 0.99933598937583 1 1521.9966887301 1521.9933796531
120	23523672 199379 1205703 2037961 202.7100128 350.118799625 5472 0.99413680781759 1 5469.0391235 5466.0864477145
120	42908800 223905 2149368 3294411 360.61 549.575239768 5984 0.99879711307137 1 5983.1843983756 5982.3692445965
120	54108107 11578 3299992 3543008 550.292005008 599.973286282 403 1 1 403 403
vector 121 NetK.rte[14].queue[1] Throughput ETV
121	8558569 23580 346 1168343 0.0000128 200.3600736 873 0.9957805907173 1 872.99578059072 872.99157898485
121	23723051 42062 1215282 2115981 203.75111469 357.693791852 1458 0.98997772828508 1 1457.9357234409 1457.8718247578
121	43132705 43020 2119513 3271468 358.06140202 545.460583833 1485 0.99365213711384 1 1484.8990740449 1484.7985902337
121	54119685 1522 3297865 3542932 550.0292096 599.970807882 46 0.99427530575072 1 45.934166016133 45.868588995513
vector 122 NetK.rte[14].queue[2] Throughput ETV
122	8582149 30280 347 1187283 0.0000128 200.7622832 901 0.87203302373581 1 860.63069296879 824.24384996192
122	23765113 113799 1187303 2038292 200.7647184 350.1298048 3594 0.89850746268657 1 3571.8605291744 3550.7818554985
122	43175725 33277 2240780 3270749 369.91 545.41 1156 0.99697030902848 1 1155.9753200917 1155.9506908679
122	54121207 287 3296245 3546443 550.0024 600.0628096 11 1 1 11 11
vector 123 NetK.rte[14].queue[3] Throughput ETV
123	8612429 23558 348 1184414 0.0000128 200.6765328 886 0.95652173913043 1 885.94549922744 885.89292582668
123	23878912 17510 1198851 2033835 201.685225627 349.850249589 600 0.98561759729272 1 599.77265217044 599.54766018997
123	43209002 4391 2288339 3271467 375.012 545.460583833 160 0.99734571997346 1 159.99336429993 159.98674180962
123	54121494 71 3296571 3296920 550.0096 550.0144 3 1 1 3 3
vector 124 NetK.rte[14].queue[5] Throughput ETV
124	8635987 13595 350 776251 0.0000128 145.5100128 509 0.98611111111111 1 508.98611111111 508.97241512346
124	23896422 162453 1353717 2119202 225.0048 358.0284096 4123 0.98393267023718 1 4118.376471034 4113.7662087702
124	43213393 321188 2119211 3270751 358.0308096 545.41 7961 0.99767216294859 1 7948.0533093746 7935.1304747838
124	54121565 11177 3296167 3420745 550 574.876212243 378 0.99904829883417 1 377.98802828651 377.97606357049
vector 125 NetK.rte[5].queue[1] Throughput ETV
125	8649582 14335 352 1187265 0.0000128 200.759848 528 0.69230769230769 1 526.83926021799 525.88161972525
125	24058875 10118 1187353 2059769 200.7647616 352.1100128 354 0.99428571428571 1 353.96167473396 353.92347275897
125	43534581 7190 2227667 3294297 368.6100128 549.563804821 249 0.98902305159166 1 248.89875091119 248.79822653834
125	54132742 4226 3295738 3546107 549.939467642 600.0602048 147 0.9992169146437 1 146.99921691464 146.99843444251
vector 126 NetK.rte[5].queue[2] Throughput ETV
126	8663917 19555 353 1184403 0.0000128 200.6765328 731 0.96875 1 730.96029115503 730.92158575229
126	24068993 18483 1198840 2118720 201.685225627 357.955513519 642 0.99606918238994 1 641.97899275857 641.95803489824
126	43541771 13521 2125241 3295395 358.565801685 549.839106404 471 0.99887640449438 1 470.99774480617 470.9954915151
126	54136968 262 3295684 3415930 549.912949244 573.91 10 1 1 10 10
vector 127 NetK.rte[5].queue[5] Throughput ETV
127	8683472 1771 355 775300 0.0000128 145.4101024 74 0.95652173913043 1 73.877391217143 73.758332940331
127	24087476 15510 1599724 2118721 275.0096 357.955513519 538 0.99146757679181 1 537.96397703897 537.92813237947
127	43555292 15382 2132337 3293518 359.169757248 549.426535272 539 0.99844720496894 1 538.99844720497 538.99689682111
vector 128 NetK.rte[1].queue[3] Throughput ETV
128	8685243 56305 386 1185629 0.0000128 200.701376 2101 0.88235294117647 1 2100.4406946243 2099.923484875
128	24102986 59798 1187804 2118340 200.7867648 357.926005634 2046 0.99742457689478 1 2045.9653490667 2045.9307289448
128	43570674 26346 2119622 3287975 358.068526155 548.6100128 923 0.99977673587854 1 922.99916034513 922.9983208671
128	54137230 4649 3421089 3543414 575.0024 600.0072 165 1 1 165 165
vector 129 NetK.rte[15].queue[1] Throughput ETV
129	8741548 20681 487 1147499 0.0000128 199.912943863 752 0.9 1 751.84603356217 751.70314281521
129	24162784 13490 1353987 2003967 225.0096 343.8106144 476 0.9990157480315 1 475.99819808654 475.99639781041
129	43597020 34885 2535215 3154226 425.0072 522.8100128 1208 0.99880952380952 1 1207.9907253439 1207.9814577024
129	54141879 223 3297521 3428995 550.0192 575.91 9 1 1 9 9
vector 130 NetK.rte[15].queue[2] Throughput ETV
130	8762229 28499 488 1148701 0.0000128 200.0109472 1027 0.92 1 1026.6995575564 1026.4116903143
130	24176274 2727 1495018 2003968 250.012 343.8106144 98 0.99903381642512 1 97.996263299558 97.99253009402
130	43631905 34034 2229737 3154227 368.816479433 522.8100128 1157 0.98672566371681 1 1156.59734436 1156.1986671157
130	54142102 10671 3296171 3428996 550 575.91 373 1 1 373 373
vector 131 NetK.rte[15].queue[3] Throughput ETV
131	8790728 11374 489 1149193 0.0000128 200.0264 435 0.92 1 434.82202386501 434.65435106136
131	24179001 9151 1342496 2038645 223.5100128 350.1347072 323 0.99861495844875 1 322.99727984496 322.9945633908
131	43665939 12184 2149409 3253156 360.61 542.1103072 425 0.99828913601369 1 424.99400899352 424.98802603909
131	54152773 194 3298540 3545664 550.0504 600.0456 8 1 1 8 8
vector 132 NetK.rte[15].queue[4] Throughput ETV
132	8802102 15199 490 798781 0.0000128 150.0025024 567 0.97368421052632 1 566.75140150759 566.50642200227
132	24188152 111063 1361072 2119206 225.551554836 358.0284096 4063 0.99884659746251 1 4062.9988465975 4062.9976945253
132	43678123 211822 2119215 3154229 358.0308096 522.8100128 7934 0.99984072628813 1 7933.9995222106 7933.9990444846
132	54152967 10372 3296084 3421204 550 575.0024 361 1 1 361 361
vector 133 NetK.rte[2].queue[0] Throughput ETV
133	8817301 93129 496 1187193 0.0000128 200.7574128 3398 0.98767605633803 1 3397.8102197167 3397.6215598066
133	24299215 93280 1187561 2119148 200.7745456 358.017083715 3231 0.99943788645306 1 3230.9956913144 3230.9913838428
133	43889945 124252 2119284 3295330 358.046097315 549.834147887 4258 0.9988864142539 1 4257.9572418589 4257.9145074464
133	54163339 20553 3295518 3547112 549.876939557 600.076243426 715 1 1 715 715
vector 134 NetK.rte[2].queue[1] Throughput ETV
134	8910430 80571 497 1155570 0.0000128 200.1393024 2921 0.99579831932773 1 2920.9957983193 2920.9916142928
134	24392495 30133 1205929 2119147 202.720045282 358.017083715 1046 0.99866345896819 1 1045.9940240849 1045.9880532289
134	44014197 31674 2119283 3235499 358.046097315 537.990795551 1102 0.99952595401754 1 1101.9983432458 1101.9966871076
134	54183892 16627 3296491 3543002 550.0072432 599.973286282 579 0.9998029168309 1 578.9996058725 578.99921182266
vector 135 NetK.rte[2].queue[2] Throughput ETV
135	8991001 55411 498 1187240 0.0000128 200.759848 1987 0.97396963123644 1 1986.3859118506 1985.7831883715
135	24422628 87089 1187328 2117723 200.7647616 357.871771685 3011 0.99787878787879 1 3010.9721226513 3010.9442848048
135	44045871 63505 2119971 3170780 358.10815123 524.779436791 2201 0.99918699186992 1 2200.9970142288 2200.9940300777
135	54200519 30077 3299411 3547111 550.157896102 600.076243426 1043 0.99987582267478 1 1042.9997538863 1042.9995078029
vector 136 NetK.rte[2].queue[3] Throughput ETV
136	9046412 44712 499 1187241 0.0000128 200.759848 1635 0.9 1 1633.9399103499 1632.9472256031
136	24509717 57838 1187329 2033960 200.7647616 349.891387547 1971 0.99688750555803 1 1970.9555774741 1970.9111996582
136	44109376 47896 2287867 3295329 375 549.834147887 1638 0.99696132596685 1 1637.9245283896 1637.8492061594
136	54230596 11711 3295517 3546792 549.876939557 600.0675504 409 1 1 409 409
vector 137 NetK.rte[2].queue[4] Throughput ETV
137	9091124 14285 500 1148231 0.0000128 200.0039008 524 0.84615384615385 1 523.70543937209 523.44099822472
137	24567555 16606 1354118 2034059 225.012 349.93608264 572 0.99343955014058 1 571.94389990717 571.88802723756
137	44157272 13022 2287866 3287938 375 548.6100128 458 0.99827437446074 1 457.99741156169 457.99482684561
137	54242307 7833 3296273 3546793 550.00422727 600.0675504 273 0.99938612645795 1 272.99881762163 272.99763594329
vector 138 NetK.rte[2].queue[5] Throughput ETV
138	9105409 49013 501 1186571 0.0000128 200.7242912 1792 0.98681732580038 1 1791.8260057292 1791.6530265321
138	24584161 39942 1193997 2020868 201.164731005 347.42579977 1369 0.99316369160653 1 1368.8298461542 1368.6605229215
138	44170294 4241 2287879 3154250 375 522.8100128 151 0.99937007874016 1 150.99905511811 150.99811073222
138	54250140 510 3296964 3546794 550.0144352 600.0675504 20 1 1 20 20
vector 139 NetK.rte[4].queue[1] Throughput ETV
139	9154422 13959 503 1155627 0.0000128 200.139448 505 0.94805194805195 1 504.69526101395 504.40117431837
139	24624103 6825 1205708 2116338 202.7100128 357.742756134 240 0.99496644295302 1 239.9840934324 239.96823905224
139	44174535 28168 2119395 3271004 358.054226777 545.4101024 979 0.99770904925544 1 978.99003669944 978.9800858382
139	54250650 2733 3296692 3547326 550.012 600.124742573 96 1 1 96 96
vector 140 NetK.rte[4].queue[2] Throughput ETV
140	9168381 14071 504 1155628 0.0000128 200.139448 544 0.99718309859155 1 543.99287738854 543.9857719816
140	24630928 2230 1205709 2005675 202.7100128 344.0100128 83 0.9968 1 82.986650082808 82.973327600306
140	44202703 6778 2288375 3271005 375.013131925 545.4101024 240 0.99701492537313 1 239.98581140225 239.97165117714
140	54253383 16614 3296707 3543073 550.012 599.993764972 569 0.99248927038627 1 568.94305986733 568.88641009842
vector 141 NetK.rte[4].queue[3] Throughput ETV
141	9182452 5862 505 1155629 0.0000128 200.139448 206 0.93220338983051 1 204.60201637954 203.26342852738
141	24633158 55906 1205710 2038092 202.7100128 350.1250048 1945 0.99563318777293 1 1944.9808065305 1944.9616856467
141	44209481 20937 2149426 3271006 360.61 545.4101024 723 0.99683972911964 1 722.94960984164 722.89931911962
141	54269997 1020 3296708 3547327 550.012 600.124742573 41 0.99965682910089 1 40.999656829101 40.999313775968
vector 142 NetK.rte[4].queue[4] Throughput ETV
142	9188314 13633 506 1187258 0.0000128 200.759848 509 0.95238095238095 1 508.95238095238 508.90702947846
142	24689064 13226 1187346 2033699 200.7647616 349.833833692 458 0.99229922992299 1 457.92038222957 457.84112115343
142	44230418 9184 2702096 2975829 450.0024 495.084568391 306 0.99097291875627 1 305.80205796823 305.60540215267
142	54271017 22416 3420896 3544763 575 600.028576232 766 0.98456790123457 1 765.76956331034 765.54165696408
vector 143 NetK.rte[4].queue[5] Throughput ETV
143	9201947 11404 507 1187259 0.0000128 200.759848 412 0.9327731092437 1 411.68542818614 411.38534539864
143	24702290 8445 1187347 2019476 200.7647616 347.046445176 294 0.99076923076923 1 293.94258741936 293.88544809659
143	44239602 12140 2540132 3271007 425.276528453 545.4101024 424 0.99822537710736 1 423.9912933177 423.98259828266
143	54293433 10077 3296372 3546808 550.0048 600.0675504 351 1 1 351 351
vector 144 NetK.rte[10].queue[0] Throughput ETV
144	9213351 19404 519 1184408 0.0000128 200.6765328 726 0.99661016949153 1 725.99661016949 725.99323182993
144	24710735 19619 1198845 2118715 201.685225627 357.955513519 675 0.97595628415301 1 674.65916783598 674.32364323394
144	44251742 15840 2120065 3295390 358.11 549.839106404 550 0.98692033293698 1 549.82486164984 549.65131959114
144	54303510 456 3295678 3546102 549.912949244 600.0602048 18 1 1 18 18
vector 145 NetK.rte[10].queue[5] Throughput ETV
145	9232755 5389 520 1156112 0.0000128 200.1488 208 1 1 208 208
145	24730354 7773 1282206 2118714 214.31 357.955513519 270 1 1 270 270
145	44267582 13035 2125234 3278017 358.565801685 546.814856805 441 0.96393442622951 1 440.21490175829 439.44852935002
145	54303966 71 3296586 3297067 550.0096 550.0168 3 1 1 3 3
vector 146 NetK.rte[16].queue[2] Size ETV
146	9238144 28310 589 1156254 0.0001152 200.1489024 1064 0 1 75 75
146	24738127 2993 1324302 2118214 220.6101024 357.91610202 109 0 0 0 0
146	44280617 24371 2120138 3271110 358.1101024 545.4101152 851 0 1 2 2
146	54304037 324 3297423 3546925 550.0170048 600.0676528 12 0 0 0 0
vector 147 NetK.rte[20].queue[1] Size ETV
147	9266454 2382 595 1186738 0.0001152 200.7292048 90 0 0 0 0
147	24741120 11800 1188020 2020894 200.791824 347.42584297 410 0 0 0 0
147	44304988 9514 2217577 3135204 367.689580487 520.0102048 332 0 0 0 0
147	54304361 447 3296419 3545760 550.0072 600.0457024 17 0 0 0 0
vector 148 NetK.rte[20].queue[2] Size ETV
148	9268836 2719 596 1155399 0.0001152 200.1370048 107 0 0 0 0
148	24752920 6301 1242980 2037747 207.8102176 350.1107072 223 0 0 0 0
148	44314502 24618 2149510 3271767 360.6101024 545.5101152 858 0 1 6 6
148	54304808 7026 3296513 3545761 550.0096 600.0457024 245 0 0 0 0
vector 149 NetK.rte[20].queue[4] Size ETV
149	9271555 21464 597 1155401 0.0001152 200.1370048 802 0 1 157 157
149	24759221 9445 1242982 2020903 207.8102176 347.42823497 330 0 1 2 2
149	44339120 7677 2418272 3271768 400.0434048 545.5101152 270 0 1 3 3
149	54311834 7064 3296296 3544520 550.0048 600.0216 246 0 1 4 4
vector 150 NetK.rte[20].queue[5] Size ETV
150	9293019 6709 598 1186758 0.0001152 200.7315968 258 0 0 0 0
150	24768666 14336 1188048 2037749 200.794216 350.1107072 501 0 1 6 6
150	44346797 19993 2149512 2993067 360.6101024 499.980197785 695 0 1 1 1
150	54318898 137 3544478 3547359 600.0194048 600.124785773 5 0 0 0 0
vector 151 NetK.rte[3].queue[0] Size ETV
151	9299728 82741 604 1155356 0.0001152 200.1369376 2992 0 8 297 1223
151	24783002 29709 1205939 2119171 202.720088482 358.019518915 1033 0 1 12 12
151	44366790 31787 2119317 3235531 358.048532515 537.993230751 1103 0 8 193 937
151	54319035 16160 3296640 3543020 550.012 599.973329482 560 0 1 8 8
vector 152 NetK.rte[3].queue[1] Size ETV
152	9382469 24190 605 1155186 0.0001152 200.1368096 904 0 9 163 901
152	24812711 77991 1205795 2118730 202.7101152 357.955556719 2707 0 2 596 604
152	44398577 140010 2119419 3294813 358.054269977 549.65326662 4851 0 2 1642 1776
152	54335195 10346 3296994 3544786 550.0145456 600.028619432 359 0 0 0 0
vector 153 NetK.rte[3].queue[2] Size ETV
153	9406659 41522 606 1155187 0.0001152 200.1368096 1507 0 1 9 9
153	24890702 165474 1205796 2037982 202.7101152 350.121199625 5729 0 9 8494 47368
153	44538587 175243 2149552 3294424 360.6102048 549.575282968 6068 0 10 7761 36491
153	54345541 11692 3300029 3543034 550.292048208 599.975721482 406 0 1 4 4
vector 154 NetK.rte[2].queue[0] Size ETV
154	9448181 92090 619 1187218 0.0001152 200.759848 3381 0 9 386 1716
154	25056176 95570 1187586 2119172 200.7769808 358.019518915 3313 0 2 186 206
154	44713830 126732 2119318 3295354 358.048532515 549.836583087 4391 0 9 897 4203
154	54357233 20813 3295541 3547143 549.879374757 600.078678626 722 0 1 9 9
vector 155 NetK.rte[2].queue[1] Size ETV
155	9540271 80069 620 1155587 0.0001152 200.1394048 2897 0 1 1 1
155	25151746 29263 1205941 2119158 202.722480482 358.017126915 1016 0 1 2 2
155	44840562 30975 2119300 3235511 358.046140515 537.990838751 1075 0 0 0 0
155	54378046 16456 3296995 3543033 550.0145888 599.975721482 572 0 0 0 0
vector 156 NetK.rte[2].queue[2] Size ETV
156	9620340 51617 621 1187277 0.0001152 200.7598912 1882 0 8 129 409
156	25181009 88490 1187365 2117741 200.7648048 357.871814885 3069 0 8 264 1176
156	44871537 63213 2119989 3170792 358.10819443 524.779479991 2190 0 1 10 10
156	54394502 38196 3299448 3547128 550.157939302 600.076286626 1324 0 1 294 294
vector 157 NetK.rte[2].queue[3] Size ETV
157	9671957 42796 622 1187287 0.0001152 200.7622832 1571 0 1 32 32
157	25269499 74964 1187375 2033966 200.7671968 349.891430747 2603 0 8 966 1434
157	44934750 48725 2288850 3295345 375.0265568 549.834191087 1688 0 8 204 486
157	54432698 11537 3295533 3546920 549.876982757 600.0676528 401 0 0 0 0
vector 158 NetK.rte[2].queue[4] Size ETV
158	9714753 13597 623 1148346 0.0001152 200.006336 498 0 0 0 0
158	25344463 16712 1354180 2034092 225.0144 349.93851784 582 0 8 84 364
158	44983475 12874 2287971 3288037 375.0024 548.6101152 449 0 1 6 6
158	54444235 7403 3296405 3546921 550.00666247 600.0676528 258 0 1 4 4
vector 159 NetK.rte[2].queue[5] Size ETV
159	9728350 47949 624 1186576 0.0001152 200.7243344 1769 0 8 267 1107
159	25361175 38057 1194011 2020901 201.164774205 347.42823497 1320 0 2 20 26
159	44996349 4106 2287973 3154398 375.0024 522.8101152 144 0 1 4 4
159	54451638 481 3296993 3546922 550.0145376 600.0676528 18 0 0 0 0
vector 160 NetK.rte[4].queue[1] Size ETV
160	9776299 13099 625 1155687 0.0001152 200.1395504 473 0 0 0 0
160	25399232 6329 1205797 2116361 202.7101152 357.742799334 222 0 0 0 0
160	45000455 27300 2119418 3271158 358.054269977 545.4102048 949 0 0 0 0
160	54452119 2725 3296821 3547356 550.0120432 600.124785773 95 0 0 0 0
vector 161 NetK.rte[4].queue[2] Size ETV
161	9789398 13649 626 1155688 0.0001152 200.1395504 525 0 0 0 0
161	25405561 1491 1205798 2005743 202.7101152 344.0101152 55 0 0 0 0
161	45027755 6040 2288462 3271159 375.015567125 545.4102048 213 0 0 0 0
161	54454844 16915 3296827 3543094 550.0121024 599.993808172 586 0 8 129 689
vector 162 NetK.rte[4].queue[3] Size ETV
162	9803047 4707 627 1155689 0.0001152 200.1395504 176 0 8 128 688
162	25407052 53549 1205799 2038142 202.7101152 350.1251072 1861 0 0 0 0
162	45033795 19028 2149526 3271160 360.6101024 545.4102048 665 0 1 4 4
162	54471759 961 3296828 3547364 550.0121024 600.127177773 37 0 0 0 0
vector 163 NetK.rte[4].queue[4] Size ETV
163	9807754 14083 628 1187280 0.0001152 200.7598912 522 0 1 30 30
163	25460601 11768 1187368 2033772 200.7648048 349.836268892 413 0 8 70 352
163	45052823 7745 2704713 2975841 450.0554048 495.084611591 269 0 2 4 6
163	54472720 23175 3423237 3544785 575.06473266 600.028619432 803 0 1 124 124
vector 164 NetK.rte[4].queue[5] Size ETV
164	9821837 12455 629 1187090 0.0001152 200.7500208 453 0 9 124 536
[...]
422	32188281 24478 1187769 1905572 200.784818495 324.530650152 850 0.99960206923995 1 849.99848215623 849.99696474655
422	51523744 10436 2417372 3154154 400.024 522.8100128 360 0.99875200570512 1 359.98955321797 359.97911534075
422	56318372 21042 3296127 3420822 550 574.9219878 712 0.9964824120603 1 711.95075700597 711.90161975991
vector 423 NetK.rte[13].queue[0] Size ETV
423	15971161 176848 100807 1186406 25.224426484 200.7199824 6556 0 3 1856 1876
423	32212759 24064 1187773 1905665 200.784861695 324.533085352 836 0 1 1 1
423	51534180 9928 2417480 3154350 400.0241024 522.8101152 346 0 8 130 690
423	56339414 20755 3298759 3420834 550.0553456 574.924423 719 0 7 139 359
vector 424 NetK.rte[23].queue[0] Throughput ETV
424	16148009 4618 101081 1148630 25.23882285 200.0101024 168 0.82352941176471 1 165.68196063577 163.64530681124
424	32236823 16839 1353395 2118364 225 357.926005634 583 0.97749196141479 1 582.8430293618 582.68817345122
424	51544108 27494 2123397 3216794 358.405712827 533.287986695 935 0.98404255319149 1 934.75189898517 934.50565264359
424	56360169 4623 3299969 3420696 550.292005008 574.873777043 160 1 1 160 160
vector 425 NetK.rte[23].queue[0] Size ETV
425	16152627 3218 101098 1148684 25.23886605 200.0102048 122 0 0 0 0
425	32253662 14972 1353493 2118415 225.0024 357.928440834 524 0 8 67 347
425	51571602 22600 2123437 3216797 358.408148027 533.288029895 788 0 7 159 705
425	56364792 4623 3300036 3420733 550.294440208 574.876212243 160 0 0 0 0
vector 426 NetK.rte[17].queue[3] Throughput ETV
426	16155845 36447 101630 1156312 25.274928633 200.1490048 1325 0.99170812603648 1 1324.9444886805 1324.8893054448
426	32268634 39002 1301620 2036646 217.51 350.0673024 1357 0.99908298945438 1 1356.997264459 1356.9945305861
426	51594202 36293 2291266 3295189 375.077312 549.799446187 1258 0.99776 1 1257.9880796528 1257.9761775938
426	56369415 11948 3295715 3546694 549.936592713 600.0675504 418 0.99975520195838 1 417.99951388922 417.99902789659
vector 427 NetK.rte[17].queue[3] Size ETV
427	16192292 35802 101635 1156361 25.274971833 200.1491072 1303 0 1 25 25
427	32307636 40146 1301843 2036684 217.5101024 350.0674048 1394 0 1 65 65
427	51630495 36445 2291282 3295226 375.0773552 549.801881387 1265 0 8 93 449
427	56381363 11203 3295733 3546877 549.939027913 600.0676528 390 0 1 2 2
vector 428 NetK.terminal[0].app "latency with 9" ETV
attr unit ms
428	16228094 3128 101873 1147139 25.370932014 199.874879944 91 8.4e-006 0.026372473 0.077880547 0.00089015701976721
428	32347782 3821 1372667 2111885 227.516784865 357.332493289 108 8.4e-006 0.006618588 0.054336731 0.00010470150502594
428	51666940 3952 2154205 3275636 361.14103079 546.328522967 112 8.4e-006 0.003494454 0.042283971 3.5084626226783e-005
428	56392566 1698 3314103 3542604 553.241639777 599.84601645 49 0.0003 0.00839885 0.028092032 8.445561982906e-005
vector 429 NetK.terminal[2].app "latency with 9" ETV
attr unit ms
429	16231222 2607 106420 1162939 26.248544919 200.2621168 77 8.4e-006 23.606525907 45.508695125 1034.7478028677
429	32351603 4030 1207781 2100909 202.862983041 356.207317429 114 8.4e-006 0.007707908 0.076587769 0.00023588283125694
429	51670892 3980 2125145 3281467 358.562188077 547.411286651 113 8.4e-006 0.011570621 0.070166663 0.00029185595547626
429	56394264 1510 3302124 3535611 550.855934021 598.38794066 43 8.4e-006 0.0054776 0.055357213 0.00023146330374582
vector 430 NetK.terminal[3].app "latency with 9" ETV
attr unit ms
430	16233829 2727 107976 1136229 26.534150063 198.44617755 80 8.4e-006 0.0078808 0.06943357 0.00032479297344849
430	32355633 3252 1205072 2112256 202.605826546 357.357919371 93 8.4e-006 0.0076488 0.073030133 0.00032857226683893
430	51674872 4375 2122851 3293200 358.345291209 549.388899402 125 8.4e-006 0.008463923 0.098020246 0.00038098374450402
430	56395774 1715 3314341 3540317 553.250457294 599.557888262 48 8.4e-006 0.021286147 0.116340442 0.0010395149284832
vector 431 NetK.terminal[1].app "latency with 9" ETV
attr unit ms
431	16236556 2884 111695 1144487 27.267589403 199.555675085 85 8.4e-006 0.01123413 0.05602968 0.0002068470217562
431	32358885 3973 1203341 2097278 202.403249027 355.849271196 110 8.4e-006 0.008139408 0.089911524 0.00028869263189399
431	51679247 3197 2122778 3295192 358.342812809 549.799446187 89 8.4e-006 0.0028216 0.040697564 4.0329902193064e-005
431	56397489 1427 3314171 3540023 553.244074977 599.492955283 40 0.0003 0.005249095 0.037815046 9.5990157103638e-005
vector 432 NetK.rte[9].queue[4] Throughput ETV
432	16239440 27211 231116 968008 50 174.2100128 996 0.19230769230769 1 981.36394193528 974.56414862689
432	32362858 18906 1495660 2038090 250.024 350.1250048 659 0.9990366088632 1 658.99807414496 658.99615014437
432	51682444 27334 2149434 3271679 360.61 545.5100128 937 0.99189318073438 1 936.81256416121 936.62612492581
432	56398916 641 3543279 3547060 600.0024 600.0750928 23 0.99884526558891 1 22.996536685366 22.993076776743
vector 433 NetK.rte[3].queue[3] Throughput ETV
433	16266651 36153 231125 1147721 50 199.9375958 1309 0.375 1 1305.9487268201 1304.3012770564
433	32381764 16179 1455585 2118358 242.074268637 357.926005634 567 1 1 567 567
433	51709778 17692 2123391 3287967 358.405712827 548.6100128 622 0.99902152641879 1 621.99581775711 621.99163794614
433	56399557 427 3543371 3547066 600.0048 600.0750928 17 1 1 17 17
vector 434 NetK.rte[3].queue[5] Throughput ETV
434	16302804 48447 231126 1148590 50 200.01 1760 0.1875 1 1751.8994746548 1747.5048189265
434	32397943 64468 1494659 2119141 250.0024 358.017083715 2227 0.99655850540806 1 2226.9747052234 2226.9494615579
434	51727470 43282 2119277 3172073 358.046097315 524.967442749 1490 0.99876897825195 1 1489.9752045295 1489.9504264504
vector 435 NetK.rte[3].queue[4] Throughput ETV
435	16351251 27641 231133 968000 50 174.2100128 1006 0.95138888888889 1 1005.3864022978 1004.7909423057
435	32462411 18813 1495066 2037985 250.0144 350.121199625 655 0.99803536345776 1 654.99509130065 654.99019127638
435	51770752 26639 2149370 3287968 360.61 548.6100128 921 0.9969387755102 1 920.96167486998 920.9234285842
435	56399984 107 3544292 3547065 600.0168 600.0750928 4 1 1 4 4
vector 436 NetK.rte[9].queue[4] Size ETV
436	16378892 31622 231196 968080 50.0024 174.2101152 1164 0 1 216 216
436	32481224 18532 1495810 2038140 250.0241024 350.1251072 644 0 1 9 9
436	51797391 25298 2149531 3271779 360.6101024 545.5101152 880 0 8 70 350
436	56400091 414 3544247 3547136 600.0168 600.077528 16 0 0 0 0
vector 437 NetK.rte[3].queue[4] Size ETV
437	16410514 21544 231202 968073 50.0024 174.2101152 792 0 7 98 462
437	32499756 18569 1495104 2038009 250.0168 350.123599625 646 0 1 2 2
437	51822689 27421 2149554 3288049 360.6102048 548.6101152 954 0 7 119 309
437	56400505 109 3544313 3547094 600.0169024 600.075136 4 0 0 0 0
vector 438 NetK.rte[3].queue[3] Size ETV
438	16432058 35437 231443 1147739 50.008481471 199.937639 1284 0 1 11 11
438	32518325 16034 1455601 2118414 242.074311837 357.928440834 560 0 0 0 0
438	51850110 16627 2123436 3288048 358.408148027 548.6101152 582 0 1 1 1
438	56400614 429 3543424 3547137 600.0072 600.077528 17 0 0 0 0
vector 439 NetK.rte[1].queue[2] Throughput ETV
439	16467495 27298 231498 1185201 50.0096 200.694532913 1011 0.88571428571429 1 1009.9679339217 1009.0049622461
439	32534359 33525 1193063 2118277 201.074438555 357.920568853 1159 0.99537037037037 1 1158.960526 1158.9211619272
439	51866737 49082 2122129 3294307 358.291648388 549.563804821 1696 0.99772135416667 1 1695.9782853102 1695.956602977
439	56401043 34869 3295748 3543365 549.939467642 600.0048 1114 0.9993063583815 1 1113.9491579285 1113.8983314853
vector 440 NetK.rte[24].queue[2] Throughput ETV
440	16494793 3858 231620 644890 50.012 123.6100128 127 0.76086956521739 1 119.31972513786 113.12842904231
440	32567884 7386 1355858 2074366 225.0456 353.4100128 260 0.98941798941799 1 259.91407796043 259.82871842667
440	51915819 25568 2120079 2992578 358.11 499.8103072 886 0.98743267504488 1 885.90926353252 885.8191241754
440	56435912 7139 3300572 3544627 550.440059425 600.024 250 0.99930362116992 1 249.99930362117 249.99860772728
vector 441 NetK.rte[24].queue[2] Size ETV
441	16498651 1668 231657 644924 50.0144 123.6101152 65 0 0 0 0
441	32575270 6300 1355908 2074453 225.0457024 353.4101152 223 0 0 0 0
441	51941387 24273 2120164 2992626 358.1101024 499.8104096 845 0 8 81 395
441	56443051 6960 3300592 3544704 550.440102625 600.0264 243 0 0 0 0
vector 442 NetK.rte[1].queue[2] Size ETV
442	16500319 22380 231790 1185208 50.0192 200.694576113 835 0 1 15 15
442	32581570 27951 1193075 2118282 201.074481755 357.920612053 973 0 8 70 350
442	51965660 48782 2122134 3294311 358.291691588 549.563848021 1692 0 8 136 696
442	56450011 32154 3295752 3543420 549.939510842 600.0072 1115 0 3 243 321
vector 443 NetK.rte[6].queue[0] Throughput ETV
443	16522699 26475 231847 1185196 50.0192 200.694532913 987 0.9957805907173 1 986.99005235644 986.98013430667
443	32609521 32684 1193058 2118272 201.074438555 357.920568853 1132 0.98929663608563 1 1131.9136295886 1131.8278896706
443	52014442 49132 2122124 3294301 358.291648388 549.563804821 1709 0.999633296663 1 1708.999306606 1708.9986134533
443	56482165 33252 3295742 3546765 549.939467642 600.0675504 1123 0.99848550411077 1 1122.9797379333 1122.9594870981
vector 444 NetK.rte[6].queue[0] Size ETV
444	16549174 29991 231884 1185335 50.0216 200.696968113 1116 0 1 153 153
444	32642205 36966 1193112 2118303 201.076873755 357.923004053 1282 0 1 175 175
444	52063574 48899 2122158 3294329 358.294083588 549.566240021 1698 0 1 13 13
444	56515417 34160 3295758 3546905 549.941902842 600.0676528 1184 0 8 275 575
vector 445 NetK.rte[11].queue[3] Throughput ETV
445	16579165 11110 232108 1185189 50.0288 200.694532913 406 0.85714285714286 1 405.75671992331 405.53929838644
445	32679171 25855 1193126 2005115 201.078443701 343.91 903 0.99919224555735 1 902.99685563606 902.99371374559
445	52112473 22890 2289041 3171612 375.0336 524.929199045 799 1 1 799 799
445	56549577 458 3422018 3527647 575.0216 596.51 18 1 1 18 18
vector 446 NetK.rte[11].queue[3] Size ETV
446	16590275 10624 232162 1185206 50.0312 200.694576113 387 0 1 2 2
446	32705026 25343 1193149 2005172 201.078486901 343.9101024 882 0 0 0 0
446	52135363 22827 2289084 3171634 375.0336432 524.929242245 794 0 1 2 2
446	56550035 426 3422073 3527732 575.024 596.5101024 16 0 0 0 0
vector 447 NetK.rte[11].queue[5] Throughput ETV
447	16600899 33148 232195 1172131 50.0312 200.432608726 1169 0.86923076923077 1 1167.3132375023 1165.7458209201
447	32730369 12286 1193051 2033715 201.074438555 349.833833692 430 0.99934167215273 1 429.99806575496 429.99613275729
447	52158190 37752 2290152 3295266 375.0504 549.815324833 1295 0.99497487437186 1 1294.9068025822 1294.8138896758
447	56550461 18698 3296085 3541973 550 599.796247643 648 0.99969409605384 1 647.99969409605 647.99938828568
vector 448 NetK.rte[11].queue[5] Size ETV
448	16634047 33839 232238 1172158 50.0336 200.432651926 1216 0 8 228 558
448	32742655 12019 1193073 2033720 201.074481755 349.833876892 419 0 1 1 1
448	52195942 38063 2290173 3295269 375.0505024 549.815368033 1319 0 1 69 69
448	56569159 20752 3296183 3541983 550.0024 599.796290843 719 0 2 74 76
vector 449 NetK.rte[22].queue[1] Throughput ETV
449	16667886 48598 232310 1149411 50.036 200.0352064 1784 0.99625468164794 1 1783.992675047 1783.9853708162
449	32754674 28036 1495263 2118697 250.0216 357.955513519 966 0.99225235196458 1 965.90635533128 965.81317158424
449	52234005 12281 2119634 3173413 358.068526155 525.031376 432 0.99904912836767 1 431.99778369241 431.99556889023
vector 450 NetK.rte[22].queue[1] Size ETV
450	16716484 49358 232341 1149415 50.0384 200.0352496 1814 0 1 114 114
450	32782710 27711 1498251 2118759 250.0421744 357.957948719 963 0 1 54 54
450	52246286 11884 2119642 3173483 358.068569355 525.0338112 417 0 0 0 0
vector 451 NetK.rte[21].queue[5] Throughput ETV
451	16765842 489003 232406 1186717 50.0408 200.7291616 12279 0.97798247584812 1 12083.115397377 11890.977272708
451	32810421 18447 1495293 2086557 250.0216 354.71 638 0.9995933306222 1 637.99788835592 637.9957772141
451	52258170 2642 2120064 3173215 358.11 525.0240704 92 0.99969145325517 1 91.997763320667 91.995527123216
vector 452 NetK.rte[3].queue[5] Size ETV
452	17254845 47674 232447 1148647 50.0432 200.0101024 1740 0 1 129 129
452	32828868 65045 1494784 2119157 250.0072 358.017126915 2257 0 7 290 522
452	52260812 40148 2119299 3172104 358.046140515 524.969877949 1394 0 3 27 55
vector 453 NetK.rte[21].queue[5] Size ETV
453	17302519 51757 232455 1186737 50.0432 200.7292048 1866 0 254 64644 10932610
453	32893913 17656 1498065 2086588 250.0370672 354.7101024 613 0 1 6 6
453	52300960 1909 2120154 3173273 358.1101024 525.0265056 69 0 0 0 0
vector 454 NetK.rte[21].queue[2] Throughput ETV
454	17354276 51100 232527 1149408 50.0456 200.0352064 1861 0.90123456790123 1 1860.2627059737 1859.5723239666
454	32911569 28085 1495135 2118702 250.0168 357.955513519 972 0.99712052653229 1 971.97609025714 971.95222030186
454	52302869 11947 2119628 3173418 358.068526155 525.031376 419 0.99968573224387 1 418.99937775565 418.99875570491
vector 455 NetK.rte[22].queue[4] Throughput ETV
455	17405376 47311 232534 1079670 50.0456 190.461625098 1730 0.9987684729064 1 1729.9895951781 1729.9792019577
455	32939654 67794 1495200 2119138 250.0192 358.017083715 2300 0.98807495741056 1 2299.7261011143 2299.4538431887
455	52314816 41762 2119274 3172723 358.046097315 525.0096 1449 0.99897750511247 1 1448.9961583299 1448.99231911
vector 456 NetK.rte[21].queue[2] Size ETV
456	17452687 47116 232585 1149482 50.048 200.0376416 1734 0 8 98 380
456	33007448 25798 1495171 2118732 250.0192 357.955556719 898 0 8 72 352
456	52356578 11696 2119672 3173427 358.070961355 525.0314192 409 0 1 2 2
vector 457 NetK.rte[22].queue[4] Size ETV
457	17499803 43777 232587 1079678 50.048 190.461668298 1604 0 1 15 15
457	33033246 64157 1495221 2119170 250.0216 358.019518915 2225 0 8 374 942
457	52368274 43148 2119316 3172775 358.048532515 525.012 1498 0 1 75 75
vector 458 NetK.rte[19].queue[5] Drop ETV
458	17543580 1412 232684 275445 50.052146876 57.394837818 51 1 51 1326 45526
vector 459 NetK.rte[12].queue[1] Throughput ETV
459	17544992 7284 232883 1156040 50.060618984 200.1488 273 0.95172413793103 1 272.80689655172 272.62045184304
459	33097403 8819 1245320 2035618 208.109609769 350.0336 315 1 1 315 315
459	52411422 9919 2290539 3154389 375.0604096 522.8101152 349 1 1 349 349
459	56589911 1654 3421009 3546705 575 600.0675504 56 0.99157894736842 1 55.931688173047 55.863813009625
vector 460 NetK.rte[11].queue[2] Throughput ETV
460	17552276 7545 232888 1156306 50.060618984 200.1490048 286 0.9 1 285.8641419695 285.73912686337
460	33106222 8913 1245316 2033377 208.109609769 349.795743624 316 0.99771689497717 1 315.99408383113 315.9881794744
460	52421341 9900 2289042 3099915 375.0336 515.11 348 1 1 348 348
460	56591565 694 3422038 3540550 575.0216 599.578440886 26 1 1 26 26
vector 461 NetK.rte[11].queue[2] Size ETV
461	17559821 7027 232901 1156355 50.060662184 200.1491072 264 0 0 0 0
461	33115135 8687 1245360 2033430 208.112044969 349.798178824 305 0 1 4 4
461	52431241 9228 2289117 3100106 375.036 515.1101024 322 0 0 0 0
461	56592259 662 3422078 3540561 575.024 599.578484086 24 0 0 0 0
vector 462 NetK.rte[12].queue[1] Size ETV
462	17566848 7361 233139 1156222 50.063054184 200.1489024 276 0 8 68 348
462	33123822 8647 1245323 2035658 208.109652969 350.036 304 0 0 0 0
462	52440469 9286 2290667 3154445 375.060512 522.8102176 324 0 0 0 0
462	56592921 955 3421047 3546880 575.0024 600.0676528 35 0 0 0 0
vector 463 NetK.rte[10].queue[1] Throughput ETV
463	17574209 14156 234204 1156109 50.09624 200.1488 525 0.92307692307692 1 524.87571033173 524.75940759485
463	33132469 3386 1199805 1909917 201.940999605 325.0481024 120 0.99843260188088 1 119.99688221428 119.99376928901
463	52449755 7600 2288769 3295389 375.025552 549.839106404 270 0.99721448467967 1 269.98995130091 269.97992092391
463	56593876 458 3295677 3546103 549.912949244 600.0602048 18 1 1 18 18
vector 464 NetK.rte[10].queue[1] Size ETV
464	17588365 13771 234309 1156245 50.0963424 200.1489024 509 0 1 2 2
464	33135855 3243 1199836 1910026 201.943434805 325.0482048 114 0 0 0 0
464	52457355 7435 2288858 3295410 375.0279872 549.839149604 263 0 1 12 12
464	56594334 428 3295687 3546261 549.912992444 600.0603072 16 0 0 0 0
vector 465 NetK.rte[15].queue[5] Throughput ETV
465	17602136 492826 235791 1186714 50.145171846 200.7291616 12294 0.97540641934139 1 12087.709513983 11885.735053965
465	33139098 20395 1495065 2038753 250.0144 350.1467072 684 0.99861057506754 1 683.94244584073 683.88495819372
465	52464790 1699 2149411 3173220 360.61 525.0240704 58 0.99976967370441 1 57.998848362595 57.997696919697
vector 466 NetK.rte[15].queue[5] Size ETV
466	18094962 53598 235807 1186756 50.145215046 200.7315968 1912 0 295 87070 17115060
466	33159493 17499 1495103 2038761 250.0168 350.1468096 608 0 1 6 6
466	52466489 1378 2149516 3173232 360.6101024 525.0241136 49 0 1 1 1
vector 467 NetK.rte[10].queue[3] Throughput ETV
467	18148560 26172 276658 1184409 57.603812256 200.6765328 894 0.98159509202454 1 892.29125816108 890.60581594665
467	33176992 15301 1198846 2033842 201.685225627 349.850249589 531 1 1 531 531
467	52467867 3665 2288715 3271462 375.024 545.460583833 130 0.99726589200273 1 129.99316473001 129.98634347629
467	56594762 47 3296779 3297066 550.012 550.0168 2 1 1 2 2
vector 468 NetK.rte[10].queue[3] Size ETV
468	18174732 30589 276680 1184477 57.603855456 200.678968 1138 0 12 2067 18421
468	33192293 15298 1198891 2033869 201.687660827 349.850292789 530 0 0 0 0
468	52471532 3324 2288737 3271492 375.0240432 545.463019033 117 0 0 0 0
468	56594809 54 3296854 3297266 550.0121024 550.0169024 2 0 0 0 0
vector 469 NetK.rte[24].queue[3] Throughput ETV
469	18205321 3252 370934 972845 75 175.0265024 120 0.8 1 119.72617922343 119.49561167923
469	33207591 54969 1353439 2074367 225 353.4100128 1887 0.99350649350649 1 1886.9385720919 1886.8773280873
469	52474856 18927 2120080 3287964 358.11 548.6100128 661 0.99901912702305 1 660.9955494763 660.99110192445
469	56594863 240 3544409 3547332 600.0193024 600.124742573 9 1 1 9 9
vector 470 NetK.rte[24].queue[3] Size ETV
470	18208573 2902 370959 972890 75.0024 175.0266048 106 0 0 0 0
470	33262560 40742 1353503 2074454 225.0024 353.4101152 1414 0 1 76 76
470	52493783 18263 2120165 3288045 358.1101024 548.6101152 636 0 0 0 0
470	56595103 217 3544485 3547357 600.0194048 600.124785773 8 0 0 0 0
vector 471 NetK.rte[14].queue[0] Drop ETV
471	18211475 622 662099 720921 125.130253579 134.50985352 16 1 16 136 1496
471	33303302 2944 1911551 2033865 325.0680624 349.850249589 98 17 114 6419 498869
vector 472 NetK.rte[1].queue[0] Drop ETV
472	33306246 22133 1603405 2034184 275.204804029 349.944809514 720 1 720 259560 124675320
472	56595320 8188 3299542 3420321 550.179854439 574.820307355 265 721 985 226045 194367165
vector 473 NetK.rte[0].queue[0] Drop ETV
473	33328379 2984 1603690 1672512 275.287402316 288.369795068 100 1 100 5050 338350
473	52512046 12784 3176024 3294949 525.209633585 549.700314494 414 101 514 127305 45059415
473	56603508 186 3295457 3296034 549.846539887 549.976514042 6 515 520 3105 1606855
vector 474 NetK.rte[16].queue[1] Drop ETV
474	33331363 1452 1604476 1730433 275.405489323 298.771299731 49 1 49 1225 40425
vector 475 NetK.rte[2].queue[2] Drop ETV
475	33332815 469 2007000 2017496 344.263137852 346.536403407 16 1 16 136 1496
vector 476 NetK.rte[22].queue[3] Drop ETV
476	52524830 236 3173166 3173663 525.0216352 525.038784 4 1 4 10 30
vector 477 NetK.rte[11].queue[1] Drop ETV
477	56603694 3195 3300021 3420396 550.292005008 574.828299253 107 1 107 5778 414090
vector 478 NetK.rte[13].queue[5] Drop ETV
478	56606889 1726 3300640 3394981 550.442494625 570.281644917 58 1 58 1711 66729
vector 479 NetK.rte[23].queue[2] Drop ETV
479	56608615 711 3302318 3391288 550.896841717 569.632111193 24 1 24 300 4900
