version 2
run NetK-0-20200908-19:42:31-6016
attr configname NetK
attr datetime 20200908-19:42:31
attr experiment NetK
attr inifile omnetpp.ini
attr iterationvars "$seed=1, $alpha=5, $mVar=5, $LB=true, $LinkPre=true"
attr iterationvarsf seed=1,alpha=5,mVar=5,LB=true,LinkPre=true-
attr measurement "$seed=1, $alpha=5, $mVar=5, $LB=true, $LinkPre=true"
attr network networks.NetK
attr processid 6016
attr repetition 0
attr replication #0
attr resultdir results
attr runnumber 0
attr seedset 1
itervar LB true
itervar LinkPre true
itervar alpha 5
itervar mVar 5
itervar seed 1
param **.num_of_hosts 25
param **.num_of_terminals 2
param **.hasApp false
param *.rte[*].grid.numHosts 25
param *.rte[*].grid.constraintAreaMaxX 10000m
param *.rte[*].grid.constraintAreaMaxY 10000m
param *.rte[*].grid.constraintAreaMaxZ 0
param *.rte[*].grid.constraintAreaMinX 0m
param *.rte[*].grid.constraintAreaMinY 0m
param *.rte[*].grid.constraintAreaMinZ 0
param *.rte[*].mobility.typename "\"TurtleMobility\""
param *.rte[*].mobilityType "\"TurtleMobility\""
param *.rte[*].mobility.constraintAreaMaxX 10000m
param *.rte[*].mobility.constraintAreaMaxY 10000m
param *.rte[*].mobility.constraintAreaMaxZ 0
param *.rte[*].mobility.constraintAreaMinX 0m
param *.rte[*].mobility.constraintAreaMinY 0m
param *.rte[*].mobility.constraintAreaMinZ 0
param *.rte[0].mobility.turtleScript "xmldoc(\"mobility.xml\", \"movements//movement[@id='0']\")"
param *.rte[1].mobility.turtleScript "xmldoc(\"mobility.xml\", \"movements//movement[@id='1']\")"
param *.rte[2].mobility.turtleScript "xmldoc(\"mobility.xml\", \"movements//movement[@id='2']\")"
param *.rte[3].mobility.turtleScript "xmldoc(\"mobility.xml\", \"movements//movement[@id='3']\")"
param *.rte[4].mobility.turtleScript "xmldoc(\"mobility.xml\", \"movements//movement[@id='4']\")"
param *.rte[5].mobility.turtleScript "xmldoc(\"mobility.xml\", \"movements//movement[@id='5']\")"
param *.rte[6].mobility.turtleScript "xmldoc(\"mobility.xml\", \"movements//movement[@id='6']\")"
param *.rte[7].mobility.turtleScript "xmldoc(\"mobility.xml\", \"movements//movement[@id='7']\")"
param *.rte[8].mobility.turtleScript "xmldoc(\"mobility.xml\", \"movements//movement[@id='8']\")"
param *.rte[9].mobility.turtleScript "xmldoc(\"mobility.xml\", \"movements//movement[@id='9']\")"
param *.rte[10].mobility.turtleScript "xmldoc(\"mobility.xml\", \"movements//movement[@id='10']\")"
param *.rte[11].mobility.turtleScript "xmldoc(\"mobility.xml\", \"movements//movement[@id='11']\")"
param *.rte[12].mobility.turtleScript "xmldoc(\"mobility.xml\", \"movements//movement[@id='12']\")"
param *.rte[13].mobility.turtleScript "xmldoc(\"mobility.xml\", \"movements//movement[@id='13']\")"
param *.rte[14].mobility.turtleScript "xmldoc(\"mobility.xml\", \"movements//movement[@id='14']\")"
param *.rte[15].mobility.turtleScript "xmldoc(\"mobility.xml\", \"movements//movement[@id='15']\")"
param *.rte[16].mobility.turtleScript "xmldoc(\"mobility.xml\", \"movements//movement[@id='16']\")"
param *.rte[17].mobility.turtleScript "xmldoc(\"mobility.xml\", \"movements//movement[@id='17']\")"
param *.rte[18].mobility.turtleScript "xmldoc(\"mobility.xml\", \"movements//movement[@id='18']\")"
param *.rte[19].mobility.turtleScript "xmldoc(\"mobility.xml\", \"movements//movement[@id='19']\")"
param *.rte[20].mobility.turtleScript "xmldoc(\"mobility.xml\", \"movements//movement[@id='20']\")"
param *.rte[21].mobility.turtleScript "xmldoc(\"mobility.xml\", \"movements//movement[@id='21']\")"
param *.rte[22].mobility.turtleScript "xmldoc(\"mobility.xml\", \"movements//movement[@id='22']\")"
param *.rte[23].mobility.turtleScript "xmldoc(\"mobility.xml\", \"movements//movement[@id='23']\")"
param *.rte[24].mobility.turtleScript "xmldoc(\"mobility.xml\", \"movements//movement[@id='24']\")"
param *.terminal[*].mobility.typename "\"StationaryMobility\""
param *.terminal[*].mobilityType "\"StationaryMobility\""
param *.terminal[*].mobility.constraintAreaMaxX 10000m
param *.terminal[*].mobility.constraintAreaMaxY 10000m
param *.terminal[*].mobility.constraintAreaMaxZ 0
param *.terminal[*].mobility.constraintAreaMinX 0m
param *.terminal[*].mobility.constraintAreaMinY 0m
param *.terminal[*].mobility.constraintAreaMinZ 0
param **.alpha 5
param **.m_var 5
param **.changeRate 25s
param **.rte[*].app.packetLength "1500 bytes"
param **.rte[*].app.sendIaTime exponential(150ms)
param **.rte[*].app.burst_next_event exponential(25s)
param **.rte[*].app.burst_next_interval exponential(40ms)
param **.rte[*].app.burst_size "intuniform (80,320)"
param **.rte[*].frameCapacity 7000
param **.datarate 5Mbps
param **.load_balance_mode true
param **.load_balance_link_prediction true
param **.load_threshold 85
param **.rte[*].appType "\"App\""
param **.rte[*].mobility.element[0].typename "\"StaticGridMobility\""
param **.rte[*].mobility.element[0].subjectModule "\"^\""
param **.rte[*].mobility.updateDisplayString false
param **.rte[*].mobility.element[*].updateDisplayString false
param **.rte[*].mobility.element[0].separationX 50m
param **.rte[*].mobility.element[0].separationY 50m
param **.rte[*].mobility.element[0].constraintAreaMinX 0m
param **.rte[*].mobility.element[0].constraintAreaMinY 0m
param **.rte[*].mobility.element[0].constraintAreaMinZ 0m
param **.rte[*].mobility.element[0].constraintAreaMaxX 1500m
param **.rte[*].mobility.element[0].constraintAreaMaxY 1000m
param **.rte[*].mobility.element[0].constraintAreaMaxZ 0m

vector 0 NetK.rte[0] coordX:vector ETV
attr interpolationmode linear
attr source xCoord(mobilityPos(mobilityStateChanged))
attr title "coord X, vector"
vector 1 NetK.rte[0] coordY:vector ETV
attr interpolationmode linear
attr source yCoord(mobilityPos(mobilityStateChanged))
attr title "coord Y, vector"
vector 2 NetK.rte[1] coordX:vector ETV
attr interpolationmode linear
attr source xCoord(mobilityPos(mobilityStateChanged))
attr title "coord X, vector"
vector 3 NetK.rte[1] coordY:vector ETV
attr interpolationmode linear
attr source yCoord(mobilityPos(mobilityStateChanged))
attr title "coord Y, vector"
vector 4 NetK.rte[2] coordX:vector ETV
attr interpolationmode linear
attr source xCoord(mobilityPos(mobilityStateChanged))
attr title "coord X, vector"
vector 5 NetK.rte[2] coordY:vector ETV
attr interpolationmode linear
attr source yCoord(mobilityPos(mobilityStateChanged))
attr title "coord Y, vector"
vector 6 NetK.rte[3] coordX:vector ETV
attr interpolationmode linear
attr source xCoord(mobilityPos(mobilityStateChanged))
attr title "coord X, vector"
vector 7 NetK.rte[3] coordY:vector ETV
attr interpolationmode linear
attr source yCoord(mobilityPos(mobilityStateChanged))
attr title "coord Y, vector"
vector 8 NetK.rte[4] coordX:vector ETV
attr interpolationmode linear
attr source xCoord(mobilityPos(mobilityStateChanged))
attr title "coord X, vector"
vector 9 NetK.rte[4] coordY:vector ETV
attr interpolationmode linear
attr source yCoord(mobilityPos(mobilityStateChanged))
attr title "coord Y, vector"
vector 10 NetK.rte[5] coordX:vector ETV
attr interpolationmode linear
attr source xCoord(mobilityPos(mobilityStateChanged))
attr title "coord X, vector"
vector 11 NetK.rte[5] coordY:vector ETV
attr interpolationmode linear
attr source yCoord(mobilityPos(mobilityStateChanged))
attr title "coord Y, vector"
vector 12 NetK.rte[6] coordX:vector ETV
attr interpolationmode linear
attr source xCoord(mobilityPos(mobilityStateChanged))
attr title "coord X, vector"
vector 13 NetK.rte[6] coordY:vector ETV
attr interpolationmode linear
attr source yCoord(mobilityPos(mobilityStateChanged))
attr title "coord Y, vector"
vector 14 NetK.rte[7] coordX:vector ETV
attr interpolationmode linear
attr source xCoord(mobilityPos(mobilityStateChanged))
attr title "coord X, vector"
vector 15 NetK.rte[7] coordY:vector ETV
attr interpolationmode linear
attr source yCoord(mobilityPos(mobilityStateChanged))
attr title "coord Y, vector"
vector 16 NetK.rte[8] coordX:vector ETV
attr interpolationmode linear
attr source xCoord(mobilityPos(mobilityStateChanged))
attr title "coord X, vector"
vector 17 NetK.rte[8] coordY:vector ETV
attr interpolationmode linear
attr source yCoord(mobilityPos(mobilityStateChanged))
attr title "coord Y, vector"
vector 18 NetK.rte[9] coordX:vector ETV
attr interpolationmode linear
attr source xCoord(mobilityPos(mobilityStateChanged))
attr title "coord X, vector"
vector 19 NetK.rte[9] coordY:vector ETV
attr interpolationmode linear
attr source yCoord(mobilityPos(mobilityStateChanged))
attr title "coord Y, vector"
vector 20 NetK.rte[10] coordX:vector ETV
attr interpolationmode linear
attr source xCoord(mobilityPos(mobilityStateChanged))
attr title "coord X, vector"
vector 21 NetK.rte[10] coordY:vector ETV
attr interpolationmode linear
attr source yCoord(mobilityPos(mobilityStateChanged))
attr title "coord Y, vector"
vector 22 NetK.rte[11] coordX:vector ETV
attr interpolationmode linear
attr source xCoord(mobilityPos(mobilityStateChanged))
attr title "coord X, vector"
vector 23 NetK.rte[11] coordY:vector ETV
attr interpolationmode linear
attr source yCoord(mobilityPos(mobilityStateChanged))
attr title "coord Y, vector"
vector 24 NetK.rte[12] coordX:vector ETV
attr interpolationmode linear
attr source xCoord(mobilityPos(mobilityStateChanged))
attr title "coord X, vector"
vector 25 NetK.rte[12] coordY:vector ETV
attr interpolationmode linear
attr source yCoord(mobilityPos(mobilityStateChanged))
attr title "coord Y, vector"
vector 26 NetK.rte[13] coordX:vector ETV
attr interpolationmode linear
attr source xCoord(mobilityPos(mobilityStateChanged))
attr title "coord X, vector"
vector 27 NetK.rte[13] coordY:vector ETV
attr interpolationmode linear
attr source yCoord(mobilityPos(mobilityStateChanged))
attr title "coord Y, vector"
vector 28 NetK.rte[14] coordX:vector ETV
attr interpolationmode linear
attr source xCoord(mobilityPos(mobilityStateChanged))
attr title "coord X, vector"
vector 29 NetK.rte[14] coordY:vector ETV
attr interpolationmode linear
attr source yCoord(mobilityPos(mobilityStateChanged))
attr title "coord Y, vector"
vector 30 NetK.rte[15] coordX:vector ETV
attr interpolationmode linear
attr source xCoord(mobilityPos(mobilityStateChanged))
attr title "coord X, vector"
vector 31 NetK.rte[15] coordY:vector ETV
attr interpolationmode linear
attr source yCoord(mobilityPos(mobilityStateChanged))
attr title "coord Y, vector"
vector 32 NetK.rte[16] coordX:vector ETV
attr interpolationmode linear
attr source xCoord(mobilityPos(mobilityStateChanged))
attr title "coord X, vector"
vector 33 NetK.rte[16] coordY:vector ETV
attr interpolationmode linear
attr source yCoord(mobilityPos(mobilityStateChanged))
attr title "coord Y, vector"
vector 34 NetK.rte[17] coordX:vector ETV
attr interpolationmode linear
attr source xCoord(mobilityPos(mobilityStateChanged))
attr title "coord X, vector"
vector 35 NetK.rte[17] coordY:vector ETV
attr interpolationmode linear
attr source yCoord(mobilityPos(mobilityStateChanged))
attr title "coord Y, vector"
vector 36 NetK.rte[18] coordX:vector ETV
attr interpolationmode linear
attr source xCoord(mobilityPos(mobilityStateChanged))
attr title "coord X, vector"
vector 37 NetK.rte[18] coordY:vector ETV
attr interpolationmode linear
attr source yCoord(mobilityPos(mobilityStateChanged))
attr title "coord Y, vector"
vector 38 NetK.rte[19] coordX:vector ETV
attr interpolationmode linear
attr source xCoord(mobilityPos(mobilityStateChanged))
attr title "coord X, vector"
vector 39 NetK.rte[19] coordY:vector ETV
attr interpolationmode linear
attr source yCoord(mobilityPos(mobilityStateChanged))
attr title "coord Y, vector"
vector 40 NetK.rte[20] coordX:vector ETV
attr interpolationmode linear
attr source xCoord(mobilityPos(mobilityStateChanged))
attr title "coord X, vector"
vector 41 NetK.rte[20] coordY:vector ETV
attr interpolationmode linear
attr source yCoord(mobilityPos(mobilityStateChanged))
attr title "coord Y, vector"
vector 42 NetK.rte[21] coordX:vector ETV
attr interpolationmode linear
attr source xCoord(mobilityPos(mobilityStateChanged))
attr title "coord X, vector"
vector 43 NetK.rte[21] coordY:vector ETV
attr interpolationmode linear
attr source yCoord(mobilityPos(mobilityStateChanged))
attr title "coord Y, vector"
vector 44 NetK.rte[22] coordX:vector ETV
attr interpolationmode linear
attr source xCoord(mobilityPos(mobilityStateChanged))
attr title "coord X, vector"
vector 45 NetK.rte[22] coordY:vector ETV
attr interpolationmode linear
attr source yCoord(mobilityPos(mobilityStateChanged))
attr title "coord Y, vector"
vector 46 NetK.rte[23] coordX:vector ETV
attr interpolationmode linear
attr source xCoord(mobilityPos(mobilityStateChanged))
attr title "coord X, vector"
vector 47 NetK.rte[23] coordY:vector ETV
attr interpolationmode linear
attr source yCoord(mobilityPos(mobilityStateChanged))
attr title "coord Y, vector"
vector 48 NetK.rte[24] coordX:vector ETV
attr interpolationmode linear
attr source xCoord(mobilityPos(mobilityStateChanged))
attr title "coord X, vector"
vector 49 NetK.rte[24] coordY:vector ETV
attr interpolationmode linear
attr source yCoord(mobilityPos(mobilityStateChanged))
attr title "coord Y, vector"
vector 50 NetK.terminal[0] coordX:vector ETV
attr interpolationmode linear
attr source xCoord(mobilityPos(mobilityStateChanged))
attr title "coord X, vector"
vector 51 NetK.terminal[0] coordY:vector ETV
attr interpolationmode linear
attr source yCoord(mobilityPos(mobilityStateChanged))
attr title "coord Y, vector"
vector 52 NetK.terminal[1] coordX:vector ETV
attr interpolationmode linear
attr source xCoord(mobilityPos(mobilityStateChanged))
attr title "coord X, vector"
vector 53 NetK.terminal[1] coordY:vector ETV
attr interpolationmode linear
attr source yCoord(mobilityPos(mobilityStateChanged))
attr title "coord Y, vector"
vector 54 NetK.rte[0].queue[2] Throughput ETV
vector 55 NetK.rte[0].queue[0] Throughput ETV
vector 56 NetK.rte[4].queue[0] Throughput ETV
vector 57 NetK.rte[1].queue[4] Throughput ETV
vector 58 NetK.rte[3].queue[1] Throughput ETV
vector 59 NetK.rte[3].queue[5] Throughput ETV
vector 60 NetK.rte[3].queue[2] Throughput ETV
vector 61 NetK.rte[3].queue[4] Throughput ETV
vector 62 NetK.rte[3].queue[3] Throughput ETV
vector 63 NetK.rte[7].queue[4] Throughput ETV
vector 64 NetK.rte[7].queue[0] Throughput ETV
vector 65 NetK.rte[7].queue[2] Throughput ETV
vector 66 NetK.rte[7].queue[1] Throughput ETV
vector 67 NetK.rte[7].queue[3] Throughput ETV
vector 68 NetK.rte[4].queue[2] Throughput ETV
vector 69 NetK.rte[22].queue[3] Throughput ETV
vector 70 NetK.rte[8].queue[1] Throughput ETV
vector 71 NetK.rte[1].queue[0] Throughput ETV
vector 72 NetK.rte[8].queue[0] Throughput ETV
vector 73 NetK.rte[6].queue[4] Throughput ETV
vector 74 NetK.rte[12].queue[1] Throughput ETV
vector 75 NetK.rte[2].queue[0] Throughput ETV
vector 76 NetK.rte[0].queue[0] Size ETV
vector 77 NetK.rte[4].queue[0] Size ETV
vector 78 NetK.rte[1].queue[4] Size ETV
vector 79 NetK.rte[4].queue[2] Size ETV
vector 80 NetK.rte[22].queue[3] Size ETV
vector 81 NetK.rte[8].queue[1] Size ETV
vector 82 NetK.rte[1].queue[0] Size ETV
vector 83 NetK.rte[8].queue[0] Size ETV
vector 84 NetK.rte[6].queue[4] Size ETV
vector 85 NetK.rte[12].queue[1] Size ETV
vector 86 NetK.rte[2].queue[0] Size ETV
vector 87 NetK.rte[4].queue[1] Throughput ETV
vector 88 NetK.rte[9].queue[5] Throughput ETV
vector 89 NetK.rte[23].queue[2] Throughput ETV
vector 90 NetK.rte[2].queue[3] Throughput ETV
vector 91 NetK.rte[6].queue[1] Throughput ETV
vector 92 NetK.rte[9].queue[1] Throughput ETV
vector 93 NetK.rte[8].queue[2] Throughput ETV
vector 94 NetK.rte[8].queue[3] Throughput ETV
vector 95 NetK.rte[8].queue[5] Throughput ETV
vector 96 NetK.rte[9].queue[0] Throughput ETV
vector 97 NetK.rte[13].queue[1] Throughput ETV
vector 98 NetK.rte[3].queue[3] Size ETV
vector 99 NetK.rte[7].queue[0] Size ETV
vector 100 NetK.rte[4].queue[1] Size ETV
vector 101 NetK.rte[9].queue[5] Size ETV
vector 102 NetK.rte[23].queue[2] Size ETV
vector 103 NetK.rte[2].queue[3] Size ETV
vector 104 NetK.rte[6].queue[1] Size ETV
vector 105 NetK.rte[9].queue[1] Size ETV
vector 106 NetK.rte[9].queue[0] Size ETV
vector 107 NetK.rte[13].queue[1] Size ETV
vector 108 NetK.rte[4].queue[5] Throughput ETV
vector 109 NetK.rte[22].queue[0] Throughput ETV
vector 110 NetK.rte[9].queue[2] Throughput ETV
vector 111 NetK.rte[1].queue[3] Throughput ETV
vector 112 NetK.rte[12].queue[2] Throughput ETV
vector 113 NetK.rte[14].queue[5] Throughput ETV
vector 114 NetK.rte[17].queue[4] Throughput ETV
vector 115 NetK.rte[21].queue[5] Throughput ETV
vector 116 NetK.rte[3].queue[2] Size ETV
vector 117 NetK.rte[4].queue[5] Size ETV
vector 118 NetK.rte[22].queue[0] Size ETV
vector 119 NetK.rte[1].queue[3] Size ETV
vector 120 NetK.rte[12].queue[2] Size ETV
vector 121 NetK.rte[14].queue[5] Size ETV
vector 122 NetK.rte[17].queue[4] Size ETV
vector 123 NetK.rte[21].queue[5] Size ETV
vector 124 NetK.rte[1].queue[5] Throughput ETV
vector 125 NetK.rte[14].queue[2] Throughput ETV
vector 126 NetK.rte[14].queue[1] Throughput ETV
vector 127 NetK.rte[5].queue[1] Throughput ETV
vector 128 NetK.rte[17].queue[0] Throughput ETV
vector 129 NetK.rte[5].queue[4] Throughput ETV
vector 130 NetK.rte[11].queue[3] Throughput ETV
vector 131 NetK.rte[13].queue[2] Throughput ETV
vector 132 NetK.rte[13].queue[4] Throughput ETV
vector 133 NetK.rte[14].queue[0] Throughput ETV
vector 134 NetK.rte[12].queue[4] Throughput ETV
vector 135 NetK.rte[6].queue[0] Throughput ETV
vector 136 NetK.rte[3].queue[1] Size ETV
vector 137 NetK.rte[7].queue[2] Size ETV
vector 138 NetK.rte[1].queue[5] Size ETV
vector 139 NetK.rte[14].queue[2] Size ETV
vector 140 NetK.rte[14].queue[1] Size ETV
vector 141 NetK.rte[5].queue[1] Size ETV
vector 142 NetK.rte[17].queue[0] Size ETV
vector 143 NetK.rte[5].queue[4] Size ETV
vector 144 NetK.rte[11].queue[3] Size ETV
vector 145 NetK.rte[14].queue[0] Size ETV
vector 146 NetK.rte[12].queue[4] Size ETV
vector 147 NetK.rte[6].queue[0] Size ETV
vector 148 NetK.rte[22].queue[5] Throughput ETV
vector 149 NetK.rte[12].queue[3] Throughput ETV
vector 150 NetK.rte[9].queue[4] Throughput ETV
vector 151 NetK.rte[0].queue[2] Size ETV
vector 152 NetK.rte[3].queue[4] Size ETV
vector 153 NetK.rte[13].queue[4] Size ETV
vector 154 NetK.rte[22].queue[5] Size ETV
vector 155 NetK.rte[12].queue[3] Size ETV
vector 156 NetK.rte[9].queue[4] Size ETV
vector 157 NetK.rte[12].queue[5] Throughput ETV
vector 158 NetK.rte[14].queue[4] Throughput ETV
vector 159 NetK.rte[7].queue[1] Size ETV
vector 160 NetK.rte[8].queue[5] Size ETV
vector 161 NetK.rte[12].queue[5] Size ETV
vector 162 NetK.rte[14].queue[4] Size ETV
vector 163 NetK.rte[15].queue[1] Throughput ETV
vector 164 NetK.rte[17].queue[2] Throughput ETV
vector 165 NetK.rte[17].queue[5] Throughput ETV
vector 166 NetK.rte[4].queue[4] Throughput ETV
vector 167 NetK.rte[7].queue[4] Size ETV
vector 168 NetK.rte[9].queue[2] Size ETV
vector 169 NetK.rte[15].queue[1] Size ETV
vector 170 NetK.rte[17].queue[2] Size ETV
vector 171 NetK.rte[17].queue[5] Size ETV
vector 172 NetK.rte[4].queue[4] Size ETV
vector 173 NetK.rte[22].queue[1] Throughput ETV
vector 174 NetK.rte[15].queue[2] Throughput ETV
vector 175 NetK.rte[21].queue[3] Throughput ETV
vector 176 NetK.rte[7].queue[3] Size ETV
vector 177 NetK.rte[8].queue[2] Size ETV
vector 178 NetK.rte[8].queue[3] Size ETV
vector 179 NetK.rte[22].queue[1] Size ETV
vector 180 NetK.rte[15].queue[2] Size ETV
vector 181 NetK.rte[21].queue[3] Size ETV
vector 182 NetK.rte[15].queue[5] Throughput ETV
vector 183 NetK.rte[15].queue[5] Size ETV
vector 184 NetK.rte[23].queue[1] Throughput ETV
vector 185 NetK.rte[23].queue[1] Size ETV
vector 186 NetK.rte[17].queue[3] Throughput ETV
vector 187 NetK.rte[3].queue[5] Size ETV
vector 188 NetK.rte[17].queue[3] Size ETV
vector 189 NetK.rte[13].queue[2] Size ETV
vector 190 NetK.rte[23].queue[5] Throughput ETV
vector 191 NetK.rte[23].queue[5] Size ETV
0	0	0	1000
0	0	0	1000
0	0	0	1000
0	1424	0.1	1000
0	1667	0.2	1000
0	1905	0.299892062	1000
1	0	0	1000
1	0	0	1000
1	0	0	1000
1	1424	0.1	1005
1	1667	0.2	1010
1	1905	0.299892062	1014.9946031
2	0	0	3000
2	0	0	3000
2	0	0	3000
2	1425	0.1	3000
2	1668	0.2	3000
2	1905	0.299892062	3000
3	0	0	1000
3	0	0	1000
3	0	0	1000
3	1425	0.1	1005
3	1668	0.2	1010
3	1905	0.299892062	1014.9946031
4	0	0	5000
4	0	0	5000
4	0	0	5000
4	1426	0.1	5000
4	1669	0.2	5000
4	1905	0.299892062	5000
5	0	0	1000
5	0	0	1000
5	0	0	1000
5	1426	0.1	1005
5	1669	0.2	1010
5	1905	0.299892062	1014.9946031
6	0	0	7000
6	0	0	7000
6	0	0	7000
6	1427	0.1	7000
6	1670	0.2	7000
6	1905	0.299892062	7000
7	0	0	1000
7	0	0	1000
7	0	0	1000
7	1427	0.1	1005
7	1670	0.2	1010
7	1905	0.299892062	1014.9946031
8	0	0	9000
8	0	0	9000
8	0	0	9000
8	1428	0.1	9000
8	1671	0.2	9000
8	1905	0.299892062	9000
9	0	0	1000
9	0	0	1000
9	0	0	1000
9	1428	0.1	1005
9	1671	0.2	1010
9	1905	0.299892062	1014.9946031
10	0	0	1000
10	0	0	1000
10	0	0	1000
10	1429	0.1	1000
10	1672	0.2	1000
10	1905	0.299892062	1000
11	0	0	3000
11	0	0	3000
11	0	0	3000
11	1429	0.1	3005
11	1672	0.2	3010
11	1905	0.299892062	3014.9946031
12	0	0	3000
12	0	0	3000
12	0	0	3000
12	1430	0.1	3000
12	1673	0.2	3000
12	1905	0.299892062	3000
13	0	0	3000
13	0	0	3000
13	0	0	3000
13	1430	0.1	3005
13	1673	0.2	3010
13	1905	0.299892062	3014.9946031
14	0	0	5000
14	0	0	5000
14	0	0	5000
14	1431	0.1	5000
14	1674	0.2	5000
14	1905	0.299892062	5000
15	0	0	3000
15	0	0	3000
15	0	0	3000
15	1431	0.1	3005
15	1674	0.2	3010
15	1905	0.299892062	3014.9946031
16	0	0	7000
16	0	0	7000
16	0	0	7000
16	1432	0.1	7000
16	1675	0.2	7000
16	1905	0.299892062	7000
17	0	0	3000
17	0	0	3000
17	0	0	3000
17	1432	0.1	3005
17	1675	0.2	3010
17	1905	0.299892062	3014.9946031
18	0	0	9000
18	0	0	9000
18	0	0	9000
18	1433	0.1	9000
18	1676	0.2	9000
18	1905	0.299892062	9000
19	0	0	3000
19	0	0	3000
19	0	0	3000
19	1433	0.1	3005
19	1676	0.2	3010
19	1905	0.299892062	3014.9946031
20	0	0	1000
20	0	0	1000
20	0	0	1000
20	1434	0.1	1000
20	1677	0.2	1000
20	1905	0.299892062	1000
21	0	0	5000
21	0	0	5000
21	0	0	5000
21	1434	0.1	5005
21	1677	0.2	5010
21	1905	0.299892062	5014.9946031
22	0	0	3000
22	0	0	3000
22	0	0	3000
22	1435	0.1	3000
22	1678	0.2	3000
22	1905	0.299892062	3000
23	0	0	5000
23	0	0	5000
23	0	0	5000
23	1435	0.1	5005
23	1678	0.2	5010
23	1905	0.299892062	5014.9946031
24	0	0	5000
24	0	0	5000
24	0	0	5000
24	1436	0.1	5000
24	1679	0.2	5000
24	1905	0.299892062	5000
25	0	0	5000
25	0	0	5000
25	0	0	5000
25	1436	0.1	5005
25	1679	0.2	5010
25	1905	0.299892062	5014.9946031
26	0	0	7000
26	0	0	7000
26	0	0	7000
26	1437	0.1	7000
26	1680	0.2	7000
26	1905	0.299892062	7000
27	0	0	5000
27	0	0	5000
27	0	0	5000
27	1437	0.1	5005
27	1680	0.2	5010
27	1905	0.299892062	5014.9946031
28	0	0	9000
28	0	0	9000
28	0	0	9000
28	1438	0.1	9000
28	1681	0.2	9000
28	1905	0.299892062	9000
29	0	0	5000
29	0	0	5000
29	0	0	5000
29	1438	0.1	5005
29	1681	0.2	5010
29	1905	0.299892062	5014.9946031
30	0	0	1000
30	0	0	1000
30	0	0	1000
30	1439	0.1	1000
30	1682	0.2	1000
30	1905	0.299892062	1000
31	0	0	7000
31	0	0	7000
31	0	0	7000
31	1439	0.1	7005
31	1682	0.2	7010
31	1905	0.299892062	7014.9946031
32	0	0	3000
32	0	0	3000
32	0	0	3000
32	1440	0.1	3000
32	1683	0.2	3000
32	1905	0.299892062	3000
33	0	0	7000
33	0	0	7000
33	0	0	7000
33	1440	0.1	7005
33	1683	0.2	7010
33	1905	0.299892062	7014.9946031
34	0	0	5000
34	0	0	5000
34	0	0	5000
34	1441	0.1	5000
34	1684	0.2	5000
34	1905	0.299892062	5000
35	0	0	7000
35	0	0	7000
35	0	0	7000
35	1441	0.1	7005
35	1684	0.2	7010
35	1905	0.299892062	7014.9946031
36	0	0	7000
36	0	0	7000
36	0	0	7000
36	1442	0.1	7000
36	1685	0.2	7000
36	1905	0.299892062	7000
37	0	0	7000
37	0	0	7000
37	0	0	7000
37	1442	0.1	7005
37	1685	0.2	7010
37	1905	0.299892062	7014.9946031
38	0	0	9000
38	0	0	9000
38	0	0	9000
38	1443	0.1	9000
38	1686	0.2	9000
38	1905	0.299892062	9000
39	0	0	7000
39	0	0	7000
39	0	0	7000
39	1443	0.1	7005
39	1686	0.2	7010
39	1905	0.299892062	7014.9946031
40	0	0	1000
40	0	0	1000
40	0	0	1000
40	1444	0.1	1000
40	1687	0.2	1000
40	1905	0.299892062	1000
41	0	0	9000
41	0	0	9000
41	0	0	9000
41	1444	0.1	9005
41	1687	0.2	9010
41	1905	0.299892062	9014.9946031
42	0	0	3000
42	0	0	3000
42	0	0	3000
42	1445	0.1	3000
42	1688	0.2	3000
42	1905	0.299892062	3000
43	0	0	9000
43	0	0	9000
43	0	0	9000
43	1445	0.1	9005
43	1688	0.2	9010
43	1905	0.299892062	9014.9946031
44	0	0	5000
44	0	0	5000
44	0	0	5000
44	1446	0.1	5000
44	1689	0.2	5000
44	1905	0.299892062	5000
45	0	0	9000
45	0	0	9000
45	0	0	9000
45	1446	0.1	9005
45	1689	0.2	9010
45	1905	0.299892062	9014.9946031
46	0	0	7000
46	0	0	7000
46	0	0	7000
46	1447	0.1	7000
46	1690	0.2	7000
46	1905	0.299892062	7000
47	0	0	9000
47	0	0	9000
47	0	0	9000
47	1447	0.1	9005
47	1690	0.2	9010
47	1905	0.299892062	9014.9946031
48	0	0	9000
48	0	0	9000
48	0	0	9000
48	1448	0.1	9000
48	1691	0.2	9000
48	1905	0.299892062	9000
49	0	0	9000
49	0	0	9000
49	0	0	9000
49	1448	0.1	9005
49	1691	0.2	9010
49	1905	0.299892062	9014.9946031
50	0	0	3609.418515116
51	0	0	5899.5129470713
52	0	0	7872.6344672032
53	0	0	2641.5360230021
54	2	0	1
54	141	0.0024	0.5
54	259	0.0048	0.66666666666667
54	356	0.0072	0.83333333333333
54	503	0.0096	1
55	6	0	1
56	35	0	1
57	36	0	1
58	41	0	1
58	145	0.0024	0.6
58	260	0.0048	0.8
58	357	0.0072	1
59	42	0	1
59	146	0.0024	0.27272727272727
59	261	0.0048	0.36363636363636
59	358	0.0072	0.41666666666667
59	505	0.0096	0.46153846153846
59	614	0.012	0.53846153846154
59	730	0.0144	0.61538461538462
59	814	0.0168	0.69230769230769
59	905	0.0192	0.76923076923077
59	964	0.0216	0.84615384615385
59	1011	0.024	0.92307692307692
59	1045	0.0264	1
60	47	0	1
60	147	0.0024	0.75
60	262	0.0048	1
61	49	0	1
61	148	0.0024	0.5
61	263	0.0048	0.66666666666667
61	360	0.0072	0.83333333333333
61	506	0.0096	1
62	63	0	1
62	149	0.0024	1
63	65	0	1
63	150	0.0024	0.5
63	265	0.0048	0.57142857142857
63	361	0.0072	0.71428571428571
63	507	0.0096	0.85714285714286
63	616	0.012	1
63	731	0.0144	1
64	67	0	1
64	151	0.0024	1
64	323	0.0048	1
64	488	0.0072	1
65	68	0	1
65	152	0.0024	0.6
65	267	0.0048	0.8
65	362	0.0072	1
66	69	0	1
66	153	0.0024	0.5
66	268	0.0048	0.66666666666667
66	363	0.0072	0.83333333333333
66	509	0.0096	0.85714285714286
66	617	0.012	1
67	75	0	1
67	154	0.0024	0.33333333333333
67	269	0.0048	0.44444444444444
67	364	0.0072	0.55555555555556
67	510	0.0096	0.66666666666667
67	618	0.012	0.77777777777778
67	733	0.0144	0.88888888888889
67	816	0.0168	1
68	109	0	1
68	247	0.0024	1
68	578	0.0096	1
68	721	0.012	1
69	110	0	1
69	186	0.0024	1
69	1001	0.0216	1
70	111	0	1
70	207	0.0024	1
70	278	0.0048	0.57142857142857
70	366	0.0072	0.71428571428571
70	512	0.0096	0.85714285714286
70	620	0.012	1
71	112	0	1
72	113	0	1
72	209	0.0024	1
72	279	0.0048	0.8
72	367	0.0072	1
73	114	0	1
74	115	0	1
74	248	0.0024	1
74	417	0.0072	1
74	696	0.012	1
74	861	0.0168	1
74	1196	0.036	1
74	1278	0.0432	1
75	130	0	1
76	142	0.0024	0
77	143	0.0024	0
78	144	0.0024	0
79	155	0.0024	0
79	284	0.0048	0
79	635	0.012	0
79	753	0.0144	0
80	156	0.0024	0
80	271	0.0048	0
80	1020	0.024	0
81	157	0.0024	0
81	735	0.0144	0
82	158	0.0024	0
83	159	0.0024	0
83	513	0.0096	0
84	160	0.0024	0
85	161	0.0024	0
85	285	0.0048	0
85	522	0.0096	0
85	750	0.0144	0
85	919	0.0192	0
85	1218	0.0384	0
85	1290	0.0456	0
86	162	0.0024	0
87	185	0.0024	1
87	314	0.0048	1
87	410	0.0072	1
87	517	0.0096	1
87	624	0.012	1
88	187	0.0024	1
88	666	0.012	1
88	744	0.0144	1
88	1137	0.0312	1
88	1331	0.0504	1
89	188	0.0024	1
89	891	0.0168	1
89	959	0.0192	1
89	1170	0.0336	1
89	1262	0.0408	1
90	189	0.0024	1
91	190	0.0024	1
91	416	0.0072	1
91	574	0.0096	1
92	203	0.0024	1
93	206	0.0024	1
93	277	0.0048	0.375
93	365	0.0072	0.5
93	511	0.0096	0.625
93	619	0.012	0.75
93	734	0.0144	0.875
93	817	0.0168	1
94	216	0.0024	1
94	280	0.0048	0.42857142857143
94	368	0.0072	0.5
94	514	0.0096	0.625
94	621	0.012	0.75
94	736	0.0144	0.875
94	818	0.0168	1
95	219	0.0024	1
95	281	0.0048	0.75
95	369	0.0072	0.8
95	515	0.0096	0.83333333333333
95	622	0.012	1
96	240	0.0024	1
96	322	0.0048	1
96	418	0.0072	1
96	523	0.0096	1
96	715	0.012	1
96	783	0.0144	1
96	830	0.0168	1
96	915	0.0192	0.9
96	970	0.0216	1
96	1016	0.024	1
96	1049	0.0264	1
96	1089	0.0288	1
96	1159	0.0336	1
96	1197	0.036	1
96	1228	0.0384	1
96	1254	0.0408	1
96	1279	0.0432	1
96	1296	0.0456	1
97	242	0.0024	1
97	325	0.0048	1
97	448	0.0072	1
97	531	0.0096	0.33333333333333
97	628	0.012	0.375
97	741	0.0144	0.41176470588235
97	821	0.0168	0.42105263157895
97	910	0.0192	0.45
97	966	0.0216	0.5
97	1013	0.024	0.52380952380952
97	1047	0.0264	0.57142857142857
97	1087	0.0288	0.61904761904762
97	1124	0.0312	0.66666666666667
97	1149	0.0336	0.71428571428571
97	1184	0.036	0.76190476190476
97	1216	0.0384	0.80952380952381
97	1244	0.0408	0.85714285714286
97	1268	0.0432	0.9047619047619
97	1288	0.0456	0.95238095238095
97	1305	0.048	1
98	264	0.0048	0
99	266	0.0048	0
99	377	0.0072	0
99	535	0.0096	0
100	270	0.0048	0
100	370	0.0072	0
100	739	0.0144	0
101	272	0.0048	0
101	822	0.0168	0
101	1152	0.0336	0
101	1339	0.0528	0
102	273	0.0048	0
102	927	0.0192	0
102	976	0.0216	0
102	1190	0.036	0
102	1273	0.0432	0
103	274	0.0048	0
104	275	0.0048	0
104	521	0.0096	0
104	632	0.012	0
105	276	0.0048	0
106	282	0.0048	0
106	376	0.0072	0
106	626	0.012	0
106	751	0.0144	0
106	1126	0.0312	0
106	1187	0.036	0
106	1219	0.0384	0
106	1247	0.0408	0
106	1271	0.0432	0
106	1291	0.0456	0
106	1307	0.048	0
107	283	0.0048	0
107	378	0.0072	0
107	1326	0.0504	0
108	315	0.0048	1
108	411	0.0072	1
108	518	0.0096	1
108	865	0.0168	1
108	1067	0.0264	1
108	1105	0.0288	1
108	1299	0.0456	1
109	316	0.0048	1
109	412	0.0072	1
109	664	0.012	1
109	780	0.0144	1
110	318	0.0048	1
110	373	0.0072	1
110	516	0.0096	0.8
110	623	0.012	0.83333333333333
110	738	0.0144	1
111	319	0.0048	1
111	573	0.0096	1
112	321	0.0048	1
113	326	0.0048	1
113	577	0.0096	1
113	684	0.012	1
113	749	0.0144	0.71428571428571
113	826	0.0168	0.85714285714286
113	914	0.0192	1
113	1064	0.0264	1
114	348	0.0048	1
115	349	0.0048	1
116	359	0.0072	0
117	371	0.0072	0
117	625	0.012	0
117	921	0.0192	0
117	1092	0.0288	0
117	1129	0.0312	0
117	1308	0.048	0
118	372	0.0072	0
118	519	0.0096	0
118	742	0.0144	0
118	827	0.0168	0
119	374	0.0072	0
119	631	0.012	0
120	375	0.0072	0
121	379	0.0072	0
121	634	0.012	0
121	969	0.0216	0
121	1090	0.0288	0
122	380	0.0072	0
123	381	0.0072	0
124	414	0.0072	1
124	781	0.0144	1
124	890	0.0168	1
124	1041	0.024	1
125	421	0.0072	1
125	669	0.012	1
125	745	0.0144	1
125	823	0.0168	1
125	1103	0.0288	1
126	422	0.0072	1
126	677	0.012	1
126	747	0.0144	0.57142857142857
126	825	0.0168	0.71428571428571
126	913	0.0192	0.85714285714286
126	968	0.0216	1
127	442	0.0072	1
127	881	0.0168	1
127	1113	0.0288	1
128	443	0.0072	1
129	444	0.0072	1
129	597	0.0096	1
130	445	0.0072	1
130	880	0.0168	1
130	1202	0.036	1
131	447	0.0072	1
131	530	0.0096	0.27272727272727
131	627	0.012	0.36363636363636
131	740	0.0144	0.45454545454545
131	820	0.0168	0.54545454545455
131	909	0.0192	0.63636363636364
131	965	0.0216	0.72727272727273
131	1012	0.024	0.81818181818182
131	1046	0.0264	0.90909090909091
131	1086	0.0288	1
132	449	0.0072	1
132	532	0.0096	1
132	716	0.012	1
133	486	0.0072	1
133	579	0.0096	1
133	670	0.012	1
133	746	0.0144	0.29411764705882
133	824	0.0168	0.33333333333333
133	912	0.0192	0.38888888888889
133	967	0.0216	0.42105263157895
133	1014	0.024	0.45
133	1048	0.0264	0.5
133	1088	0.0288	0.55
133	1125	0.0312	0.6
133	1150	0.0336	0.65
133	1185	0.036	0.7
133	1217	0.0384	0.75
133	1245	0.0408	0.8
133	1269	0.0432	0.85
133	1289	0.0456	0.9
133	1306	0.048	0.95
133	1327	0.0504	1
134	487	0.0072	1
134	580	0.0096	1
134	1032	0.024	1
135	496	0.0072	1
135	892	0.0168	1
135	1038	0.024	1
136	504	0.0096	0
137	508	0.0096	0
138	520	0.0096	0
138	828	0.0168	0
138	926	0.0192	0
138	1053	0.0264	0
139	524	0.0096	0
139	911	0.0192	0
139	1127	0.0312	0
140	525	0.0096	0
140	1015	0.024	0
141	526	0.0096	0
141	925	0.0192	0
141	1131	0.0312	0
142	527	0.0096	0
143	528	0.0096	0
143	638	0.012	0
144	529	0.0096	0
144	924	0.0192	0
144	1220	0.0384	0
145	533	0.0096	0
145	636	0.012	0
145	1338	0.0528	0
146	534	0.0096	0
146	637	0.012	0
146	1051	0.0264	0
147	536	0.0096	0
147	928	0.0192	0
147	1052	0.0264	0
148	571	0.0096	1
149	575	0.0096	1
149	782	0.0144	1
149	858	0.0168	1
149	945	0.0192	1
149	1065	0.0264	1
149	1104	0.0288	1
149	1136	0.0312	1
149	1158	0.0336	1
149	1227	0.0384	1
150	598	0.0096	1
150	946	0.0192	1
151	613	0.012	0
152	615	0.012	0
153	629	0.012	0
153	752	0.0144	0
154	630	0.012	0
155	633	0.012	0
155	829	0.0168	0
155	917	0.0192	0
155	972	0.0216	0
155	1091	0.0288	0
155	1128	0.0312	0
155	1151	0.0336	0
155	1186	0.036	0
155	1246	0.0408	0
156	639	0.012	0
156	973	0.0216	0
157	665	0.012	1
157	990	0.0216	1
157	1253	0.0408	1
157	1313	0.048	1
158	678	0.012	1
158	860	0.0168	1
159	732	0.0144	0
160	737	0.0144	0
161	743	0.0144	0
161	1017	0.024	0
161	1270	0.0432	0
161	1328	0.0504	0
162	748	0.0144	0
162	918	0.0192	0
163	789	0.0144	1
164	800	0.0144	1
165	801	0.0144	1
165	879	0.0168	1
165	1142	0.0312	1
165	1164	0.0336	1
166	802	0.0144	1
166	948	0.0192	1
166	993	0.0216	1
166	1165	0.0336	1
166	1203	0.036	1
166	1233	0.0384	1
166	1259	0.0408	1
167	815	0.0168	0
168	819	0.0168	0
169	831	0.0168	0
170	832	0.0168	0
171	833	0.0168	0
171	923	0.0192	0
171	1153	0.0336	0
171	1188	0.036	0
172	834	0.0168	0
172	975	0.0216	0
172	1018	0.024	0
172	1189	0.036	0
172	1221	0.0384	0
172	1248	0.0408	0
172	1272	0.0432	0
173	857	0.0168	1
173	943	0.0192	1
173	1031	0.024	1
173	1077	0.0264	1
174	864	0.0168	1
175	878	0.0168	1
176	906	0.0192	0
177	907	0.0192	0
178	908	0.0192	0
179	916	0.0192	0
179	971	0.0216	0
179	1050	0.0264	0
179	1094	0.0288	0
180	920	0.0192	0
181	922	0.0192	0
182	947	0.0192	1
183	974	0.0216	0
184	998	0.0216	1
184	1208	0.036	1
185	1019	0.024	0
185	1222	0.0384	0
186	1074	0.0264	1
186	1112	0.0288	1
187	1085	0.0288	0
188	1093	0.0288	0
188	1130	0.0312	0
189	1123	0.0312	0
190	1171	0.0336	1
191	1191	0.036	0
vector 192 NetK.rte[0].queue[3] Throughput ETV
vector 193 NetK.rte[20].queue[2] Throughput ETV
vector 194 NetK.rte[24].queue[3] Throughput ETV
vector 195 NetK.rte[5].queue[0] Throughput ETV
0	1906	0.3	1000
0	2135	0.4	1000
0	2362	0.5	1000
0	2614	0.6	1000
0	2850	0.7	1000
0	3096	0.8	1000
0	3351	0.9	1000
0	3614	1	1000
0	3835	1.1	1000
0	4088	1.2	1000
0	4346	1.3	1000
0	4592	1.4	1000
0	4834	1.5	1000
0	5085	1.6	1000
0	5346	1.7	1000
0	5570	1.8	1000
0	5812	1.9	1000
0	6071	2	1000
0	6311	2.1	1000
0	6567	2.2	1000
0	6806	2.3	1000
0	7059	2.4	1000
0	7335	2.5	1000
0	7590	2.6	1000
0	7848	2.7	1000
0	8098	2.8	1000
0	8362	2.9	1000
0	8610	3	1000
0	8878	3.1	1000
0	9145	3.2	1000
0	9376	3.3	1000
0	9581	3.4	1000
0	9821	3.5	1000
0	10075	3.6	1000
0	10313	3.7	1000
0	10561	3.8	1000
0	10813	3.9	1000
0	11059	4	1000
0	11319	4.1	1000
0	11583	4.2	1000
0	11822	4.3	1000
0	12078	4.4	1000
0	12294	4.5	1000
0	12528	4.6	1000
0	12786	4.7	1000
0	13038	4.8	1000
0	13282	4.9	1000
0	13543	5	1000
0	13813	5.1	1000
0	14069	5.2	1000
0	14310	5.3	1000
0	14585	5.4	1000
0	14846	5.5	1000
0	15046	5.6	1000
0	15296	5.7	1000
0	15546	5.8	1000
0	15815	5.9	1000
0	16045	6	1000
0	16301	6.1	1000
0	16551	6.2	1000
0	16812	6.3	1000
0	17079	6.4	1000
0	17327	6.5	1000
0	17579	6.6	1000
0	17777	6.7	1000
0	18042	6.8	1000
0	18289	6.9	1000
0	18507	7	1000
0	18775	7.1	1000
0	19027	7.2	1000
0	19269	7.3	1000
0	19555	7.4	1000
0	19801	7.5	1000
0	20061	7.6	1000
0	20201	7.664032155	1000
0	20302	7.7	1000
0	20546	7.8	1000
0	20801	7.9	1000
0	21065	8	1000
0	21324	8.1	1000
0	21586	8.2	1000
0	21839	8.3	1000
0	22071	8.4	1000
0	22297	8.5	1000
0	22524	8.6	1000
0	22765	8.7	1000
0	23012	8.8	1000
0	23252	8.9	1000
0	23509	9	1000
0	23765	9.1	1000
0	24024	9.2	1000
0	24270	9.3	1000
0	24519	9.4	1000
0	24780	9.5	1000
0	25052	9.6	1000
0	25270	9.7	1000
0	25543	9.8	1000
0	25796	9.9	1000
0	25999	10	1000
0	26227	10.1	1000
0	26476	10.2	1000
0	26696	10.3	1000
0	26949	10.4	1000
0	27180	10.5	1000
0	27421	10.6	1000
0	27649	10.7	1000
0	27899	10.8	1000
0	28157	10.9	1000
0	28389	11	1000
0	28632	11.1	1000
0	28896	11.2	1000
0	29151	11.3	1000
0	29403	11.4	1000
0	29667	11.5	1000
0	29901	11.6	1000
0	30159	11.7	1000
0	30408	11.8	1000
0	30640	11.9	1000
0	30896	12	1000
0	31172	12.1	1000
0	31425	12.2	1000
0	31689	12.3	1000
0	31932	12.4	1000
0	32203	12.5	1000
0	32434	12.6	1000
0	32682	12.7	1000
0	32911	12.8	1000
0	33166	12.9	1000
0	33438	13	1000
0	33705	13.1	1000
0	33945	13.2	1000
0	34159	13.3	1000
0	34399	13.4	1000
0	34638	13.5	1000
0	34903	13.6	1000
0	35145	13.7	1000
0	35381	13.8	1000
0	35602	13.9	1000
0	35845	14	1000
0	36094	14.1	1000
0	36370	14.2	1000
0	36616	14.3	1000
0	36832	14.4	1000
0	37092	14.5	1000
0	37373	14.6	1000
0	37621	14.7	1000
0	37873	14.8	1000
0	38136	14.9	1000
0	38385	15	1000
0	38623	15.1	1000
0	38885	15.2	1000
0	39142	15.3	1000
0	39398	15.4	1000
0	39613	15.5	1000
0	39856	15.6	1000
0	40126	15.7	1000
0	40350	15.8	1000
0	40599	15.9	1000
0	40874	16	1000
0	41141	16.1	1000
0	41406	16.2	1000
0	41671	16.3	1000
0	41922	16.4	1000
0	42177	16.5	1000
0	42381	16.6	1000
0	42621	16.7	1000
0	42874	16.8	1000
0	43142	16.9	1000
0	43380	17	1000
0	43634	17.1	1000
0	43870	17.2	1000
0	44113	17.3	1000
0	44348	17.4	1000
0	44586	17.5	1000
0	44829	17.6	1000
0	45047	17.7	1000
0	45289	17.8	1000
0	45564	17.9	1000
0	45809	18	1000
0	46054	18.1	1000
0	46309	18.2	1000
0	46538	18.3	1000
0	46796	18.4	1000
0	47042	18.5	1000
0	47168	18.553002507	1000
0	47297	18.6	1000
0	47538	18.7	1000
0	47776	18.8	1000
0	48029	18.9	1000
0	48289	19	1000
0	48555	19.1	1000
0	48804	19.2	1000
0	49060	19.3	1000
0	49304	19.4	1000
0	49571	19.5	1000
0	49821	19.6	1000
0	50064	19.7	1000
0	50297	19.8	1000
0	50512	19.9	1000
0	50745	20	1000
0	50983	20.1	1000
0	51231	20.2	1000
0	51479	20.3	1000
0	51746	20.4	1000
0	52004	20.5	1000
0	52249	20.6	1000
0	52489	20.7	1000
0	52710	20.8	1000
0	52963	20.9	1000
0	53180	21	1000
0	53450	21.1	1000
0	53697	21.2	1000
0	53980	21.3	1000
0	54220	21.4	1000
0	54490	21.5	1000
0	54736	21.6	1000
0	54999	21.7	1000
0	55237	21.8	1000
0	55471	21.9	1000
0	55725	22	1000
0	55963	22.1	1000
0	56193	22.2	1000
0	56458	22.3	1000
0	56699	22.4	1000
0	56963	22.5	1000
0	57208	22.6	1000
0	57476	22.7	1000
0	57730	22.8	1000
0	57958	22.9	1000
0	58212	23	1000
0	58457	23.1	1000
0	58680	23.2	1000
0	58933	23.3	1000
0	59165	23.4	1000
0	59438	23.5	1000
0	59683	23.6	1000
0	59931	23.7	1000
0	60192	23.8	1000
0	60446	23.9	1000
0	60700	24	1000
0	60947	24.1	1000
0	61183	24.2	1000
0	61403	24.3	1000
0	61639	24.4	1000
0	61901	24.5	1000
0	62149	24.6	1000
0	62418	24.7	1000
0	62660	24.8	1000
0	62907	24.9	1000
0	63178	25	1000
1	1906	0.3	1015
1	2135	0.4	1020
1	2362	0.5	1025
1	2614	0.6	1030
1	2850	0.7	1035
1	3096	0.8	1040
1	3351	0.9	1045
1	3614	1	1050
1	3835	1.1	1055
1	4088	1.2	1060
1	4346	1.3	1065
1	4592	1.4	1070
1	4834	1.5	1075
1	5085	1.6	1080
1	5346	1.7	1085
1	5570	1.8	1090
1	5812	1.9	1095
1	6071	2	1100
1	6311	2.1	1105
1	6567	2.2	1110
1	6806	2.3	1115
1	7059	2.4	1120
1	7335	2.5	1125
1	7590	2.6	1130
1	7848	2.7	1135
1	8098	2.8	1140
1	8362	2.9	1145
1	8610	3	1150
1	8878	3.1	1155
1	9145	3.2	1160
1	9376	3.3	1165
1	9581	3.4	1170
1	9821	3.5	1175
1	10075	3.6	1180
1	10313	3.7	1185
1	10561	3.8	1190
1	10813	3.9	1195
1	11059	4	1200
1	11319	4.1	1205
1	11583	4.2	1210
1	11822	4.3	1215
1	12078	4.4	1220
1	12294	4.5	1225
1	12528	4.6	1230
1	12786	4.7	1235
1	13038	4.8	1240
1	13282	4.9	1245
1	13543	5	1250
1	13813	5.1	1255
1	14069	5.2	1260
1	14310	5.3	1265
1	14585	5.4	1270
1	14846	5.5	1275
1	15046	5.6	1280
1	15296	5.7	1285
1	15546	5.8	1290
1	15815	5.9	1295
1	16045	6	1300
1	16301	6.1	1305
1	16551	6.2	1310
1	16812	6.3	1315
1	17079	6.4	1320
1	17327	6.5	1325
1	17579	6.6	1330
1	17777	6.7	1335
1	18042	6.8	1340
1	18289	6.9	1345
1	18507	7	1350
1	18775	7.1	1355
1	19027	7.2	1360
1	19269	7.3	1365
1	19555	7.4	1370
1	19801	7.5	1375
1	20061	7.6	1380
1	20201	7.664032155	1383.20160775
1	20302	7.7	1385
1	20546	7.8	1390
1	20801	7.9	1395
1	21065	8	1400
1	21324	8.1	1405
1	21586	8.2	1410
1	21839	8.3	1415
1	22071	8.4	1420
1	22297	8.5	1425
1	22524	8.6	1430
1	22765	8.7	1435
1	23012	8.8	1440
1	23252	8.9	1445
1	23509	9	1450
1	23765	9.1	1455
1	24024	9.2	1460
1	24270	9.3	1465
1	24519	9.4	1470
1	24780	9.5	1475
1	25052	9.6	1480
1	25270	9.7	1485
1	25543	9.8	1490
1	25796	9.9	1495
1	25999	10	1500
1	26227	10.1	1505
1	26476	10.2	1510
1	26696	10.3	1515
1	26949	10.4	1520
1	27180	10.5	1525
1	27421	10.6	1530
1	27649	10.7	1535
1	27899	10.8	1540
1	28157	10.9	1545
1	28389	11	1550
1	28632	11.1	1555
1	28896	11.2	1560
1	29151	11.3	1565
1	29403	11.4	1570
1	29667	11.5	1575
1	29901	11.6	1580
1	30159	11.7	1585
1	30408	11.8	1590
1	30640	11.9	1595
1	30896	12	1600
1	31172	12.1	1605
1	31425	12.2	1610
1	31689	12.3	1615
1	31932	12.4	1620
1	32203	12.5	1625
1	32434	12.6	1630
1	32682	12.7	1635
1	32911	12.8	1640
1	33166	12.9	1645
1	33438	13	1650
1	33705	13.1	1655
1	33945	13.2	1660
1	34159	13.3	1665
1	34399	13.4	1670
1	34638	13.5	1675
1	34903	13.6	1680
1	35145	13.7	1685
1	35381	13.8	1690
1	35602	13.9	1695
1	35845	14	1700
1	36094	14.1	1705
1	36370	14.2	1710
1	36616	14.3	1715
1	36832	14.4	1720
1	37092	14.5	1725
1	37373	14.6	1730
1	37621	14.7	1735
1	37873	14.8	1740
1	38136	14.9	1745
1	38385	15	1750
1	38623	15.1	1755
1	38885	15.2	1760
1	39142	15.3	1765
1	39398	15.4	1770
1	39613	15.5	1775
1	39856	15.6	1780
1	40126	15.7	1785
1	40350	15.8	1790
1	40599	15.9	1795
1	40874	16	1800
1	41141	16.1	1805
1	41406	16.2	1810
1	41671	16.3	1815
1	41922	16.4	1820
1	42177	16.5	1825
1	42381	16.6	1830
1	42621	16.7	1835
1	42874	16.8	1840
1	43142	16.9	1845
1	43380	17	1850
1	43634	17.1	1855
1	43870	17.2	1860
1	44113	17.3	1865
1	44348	17.4	1870
1	44586	17.5	1875
1	44829	17.6	1880
1	45047	17.7	1885
1	45289	17.8	1890
1	45564	17.9	1895
1	45809	18	1900
1	46054	18.1	1905
1	46309	18.2	1910
1	46538	18.3	1915
1	46796	18.4	1920
1	47042	18.5	1925
1	47168	18.553002507	1927.65012535
1	47297	18.6	1930
1	47538	18.7	1935
1	47776	18.8	1940
1	48029	18.9	1945
1	48289	19	1950
1	48555	19.1	1955
1	48804	19.2	1960
1	49060	19.3	1965
1	49304	19.4	1970
1	49571	19.5	1975
1	49821	19.6	1980
1	50064	19.7	1985
1	50297	19.8	1990
1	50512	19.9	1995
1	50745	20	2000
1	50983	20.1	2005
1	51231	20.2	2010
1	51479	20.3	2015
1	51746	20.4	2020
1	52004	20.5	2025
1	52249	20.6	2030
1	52489	20.7	2035
1	52710	20.8	2040
1	52963	20.9	2045
1	53180	21	2050
1	53450	21.1	2055
1	53697	21.2	2060
1	53980	21.3	2065
1	54220	21.4	2070
1	54490	21.5	2075
1	54736	21.6	2080
1	54999	21.7	2085
1	55237	21.8	2090
1	55471	21.9	2095
1	55725	22	2100
1	55963	22.1	2105
1	56193	22.2	2110
1	56458	22.3	2115
1	56699	22.4	2120
1	56963	22.5	2125
1	57208	22.6	2130
1	57476	22.7	2135
1	57730	22.8	2140
1	57958	22.9	2145
1	58212	23	2150
1	58457	23.1	2155
1	58680	23.2	2160
1	58933	23.3	2165
1	59165	23.4	2170
1	59438	23.5	2175
1	59683	23.6	2180
1	59931	23.7	2185
1	60192	23.8	2190
1	60446	23.9	2195
1	60700	24	2200
1	60947	24.1	2205
1	61183	24.2	2210
1	61403	24.3	2215
1	61639	24.4	2220
1	61901	24.5	2225
1	62149	24.6	2230
1	62418	24.7	2235
1	62660	24.8	2240
1	62907	24.9	2245
1	63178	25	2250
2	1907	0.3	3000
2	2136	0.4	3000
2	2363	0.5	3000
2	2615	0.6	3000
2	2851	0.7	3000
2	3097	0.8	3000
2	3352	0.9	3000
2	3615	1	3000
2	3836	1.1	3000
2	4089	1.2	3000
2	4347	1.3	3000
2	4593	1.4	3000
2	4835	1.5	3000
2	5086	1.6	3000
2	5347	1.7	3000
2	5571	1.8	3000
2	5813	1.9	3000
2	6072	2	3000
2	6312	2.1	3000
2	6568	2.2	3000
2	6807	2.3	3000
2	7060	2.4	3000
2	7336	2.5	3000
2	7591	2.6	3000
2	7849	2.7	3000
2	8099	2.8	3000
2	8363	2.9	3000
2	8611	3	3000
2	8879	3.1	3000
2	9146	3.2	3000
2	9377	3.3	3000
2	9582	3.4	3000
2	9822	3.5	3000
2	10076	3.6	3000
2	10314	3.7	3000
2	10562	3.8	3000
2	10814	3.9	3000
2	11060	4	3000
2	11320	4.1	3000
2	11584	4.2	3000
2	11823	4.3	3000
2	12079	4.4	3000
2	12295	4.5	3000
2	12529	4.6	3000
2	12787	4.7	3000
2	13039	4.8	3000
2	13283	4.9	3000
2	13544	5	3000
2	13814	5.1	3000
2	14070	5.2	3000
2	14311	5.3	3000
2	14586	5.4	3000
2	14847	5.5	3000
2	15047	5.6	3000
2	15297	5.7	3000
2	15547	5.8	3000
2	15816	5.9	3000
2	16046	6	3000
2	16302	6.1	3000
2	16552	6.2	3000
2	16813	6.3	3000
2	17080	6.4	3000
2	17328	6.5	3000
2	17580	6.6	3000
2	17778	6.7	3000
2	18043	6.8	3000
2	18290	6.9	3000
2	18508	7	3000
2	18776	7.1	3000
2	19028	7.2	3000
2	19270	7.3	3000
2	19556	7.4	3000
2	19802	7.5	3000
2	20062	7.6	3000
2	20201	7.664032155	3000
2	20303	7.7	3000
2	20547	7.8	3000
2	20802	7.9	3000
2	21066	8	3000
2	21325	8.1	3000
2	21587	8.2	3000
2	21840	8.3	3000
2	22072	8.4	3000
2	22298	8.5	3000
2	22525	8.6	3000
2	22766	8.7	3000
2	23013	8.8	3000
2	23253	8.9	3000
2	23510	9	3000
2	23766	9.1	3000
2	24025	9.2	3000
2	24271	9.3	3000
2	24520	9.4	3000
2	24781	9.5	3000
2	25053	9.6	3000
2	25271	9.7	3000
2	25544	9.8	3000
2	25797	9.9	3000
2	26000	10	3000
2	26228	10.1	3000
2	26477	10.2	3000
2	26697	10.3	3000
2	26950	10.4	3000
2	27181	10.5	3000
2	27422	10.6	3000
2	27650	10.7	3000
2	27900	10.8	3000
2	28158	10.9	3000
2	28390	11	3000
2	28633	11.1	3000
2	28897	11.2	3000
2	29152	11.3	3000
2	29404	11.4	3000
2	29668	11.5	3000
2	29902	11.6	3000
2	30160	11.7	3000
2	30409	11.8	3000
2	30641	11.9	3000
2	30897	12	3000
2	31173	12.1	3000
2	31426	12.2	3000
2	31690	12.3	3000
2	31933	12.4	3000
2	32204	12.5	3000
2	32435	12.6	3000
2	32683	12.7	3000
2	32912	12.8	3000
2	33167	12.9	3000
2	33439	13	3000
2	33706	13.1	3000
2	33946	13.2	3000
2	34160	13.3	3000
2	34400	13.4	3000
2	34639	13.5	3000
2	34904	13.6	3000
2	35146	13.7	3000
2	35382	13.8	3000
2	35603	13.9	3000
2	35846	14	3000
2	36095	14.1	3000
2	36371	14.2	3000
2	36617	14.3	3000
2	36833	14.4	3000
2	37093	14.5	3000
2	37374	14.6	3000
2	37622	14.7	3000
2	37874	14.8	3000
2	38137	14.9	3000
2	38386	15	3000
2	38624	15.1	3000
2	38886	15.2	3000
2	39143	15.3	3000
2	39399	15.4	3000
2	39614	15.5	3000
2	39857	15.6	3000
2	40127	15.7	3000
2	40351	15.8	3000
2	40600	15.9	3000
2	40875	16	3000
2	41142	16.1	3000
2	41407	16.2	3000
2	41672	16.3	3000
2	41923	16.4	3000
2	42178	16.5	3000
2	42382	16.6	3000
2	42622	16.7	3000
2	42875	16.8	3000
2	43143	16.9	3000
2	43381	17	3000
2	43635	17.1	3000
2	43871	17.2	3000
2	44114	17.3	3000
2	44349	17.4	3000
2	44587	17.5	3000
2	44830	17.6	3000
2	45048	17.7	3000
2	45290	17.8	3000
2	45565	17.9	3000
2	45810	18	3000
2	46055	18.1	3000
2	46310	18.2	3000
2	46539	18.3	3000
2	46797	18.4	3000
2	47043	18.5	3000
2	47168	18.553002507	3000
2	47298	18.6	3000
2	47539	18.7	3000
2	47777	18.8	3000
2	48030	18.9	3000
2	48290	19	3000
2	48556	19.1	3000
2	48805	19.2	3000
2	49061	19.3	3000
2	49305	19.4	3000
2	49572	19.5	3000
2	49822	19.6	3000
2	50065	19.7	3000
2	50298	19.8	3000
2	50513	19.9	3000
2	50746	20	3000
2	50984	20.1	3000
2	51232	20.2	3000
2	51480	20.3	3000
2	51747	20.4	3000
2	52005	20.5	3000
2	52250	20.6	3000
2	52490	20.7	3000
2	52711	20.8	3000
2	52964	20.9	3000
2	53181	21	3000
2	53451	21.1	3000
2	53698	21.2	3000
2	53981	21.3	3000
2	54221	21.4	3000
2	54491	21.5	3000
2	54737	21.6	3000
2	55000	21.7	3000
2	55238	21.8	3000
2	55472	21.9	3000
2	55726	22	3000
2	55964	22.1	3000
2	56194	22.2	3000
2	56459	22.3	3000
2	56700	22.4	3000
2	56964	22.5	3000
2	57209	22.6	3000
2	57477	22.7	3000
2	57731	22.8	3000
2	57959	22.9	3000
2	58213	23	3000
2	58458	23.1	3000
2	58681	23.2	3000
2	58934	23.3	3000
2	59166	23.4	3000
2	59439	23.5	3000
2	59684	23.6	3000
2	59932	23.7	3000
2	60193	23.8	3000
2	60447	23.9	3000
2	60701	24	3000
2	60948	24.1	3000
2	61184	24.2	3000
2	61404	24.3	3000
2	61640	24.4	3000
2	61902	24.5	3000
2	62150	24.6	3000
2	62419	24.7	3000
2	62661	24.8	3000
2	62908	24.9	3000
2	63179	25	3000
3	1907	0.3	1015
3	2136	0.4	1020
3	2363	0.5	1025
3	2615	0.6	1030
3	2851	0.7	1035
3	3097	0.8	1040
3	3352	0.9	1045
3	3615	1	1050
3	3836	1.1	1055
3	4089	1.2	1060
3	4347	1.3	1065
3	4593	1.4	1070
3	4835	1.5	1075
3	5086	1.6	1080
3	5347	1.7	1085
3	5571	1.8	1090
3	5813	1.9	1095
3	6072	2	1100
3	6312	2.1	1105
3	6568	2.2	1110
3	6807	2.3	1115
3	7060	2.4	1120
3	7336	2.5	1125
3	7591	2.6	1130
3	7849	2.7	1135
3	8099	2.8	1140
3	8363	2.9	1145
3	8611	3	1150
3	8879	3.1	1155
3	9146	3.2	1160
3	9377	3.3	1165
3	9582	3.4	1170
3	9822	3.5	1175
3	10076	3.6	1180
3	10314	3.7	1185
3	10562	3.8	1190
3	10814	3.9	1195
3	11060	4	1200
3	11320	4.1	1205
3	11584	4.2	1210
3	11823	4.3	1215
3	12079	4.4	1220
3	12295	4.5	1225
3	12529	4.6	1230
3	12787	4.7	1235
3	13039	4.8	1240
3	13283	4.9	1245
3	13544	5	1250
3	13814	5.1	1255
3	14070	5.2	1260
3	14311	5.3	1265
3	14586	5.4	1270
3	14847	5.5	1275
3	15047	5.6	1280
3	15297	5.7	1285
3	15547	5.8	1290
3	15816	5.9	1295
3	16046	6	1300
3	16302	6.1	1305
3	16552	6.2	1310
3	16813	6.3	1315
3	17080	6.4	1320
3	17328	6.5	1325
3	17580	6.6	1330
3	17778	6.7	1335
3	18043	6.8	1340
3	18290	6.9	1345
3	18508	7	1350
3	18776	7.1	1355
3	19028	7.2	1360
3	19270	7.3	1365
3	19556	7.4	1370
3	19802	7.5	1375
3	20062	7.6	1380
3	20201	7.664032155	1383.20160775
3	20303	7.7	1385
3	20547	7.8	1390
3	20802	7.9	1395
3	21066	8	1400
3	21325	8.1	1405
3	21587	8.2	1410
3	21840	8.3	1415
3	22072	8.4	1420
3	22298	8.5	1425
3	22525	8.6	1430
3	22766	8.7	1435
3	23013	8.8	1440
3	23253	8.9	1445
3	23510	9	1450
3	23766	9.1	1455
3	24025	9.2	1460
3	24271	9.3	1465
3	24520	9.4	1470
3	24781	9.5	1475
3	25053	9.6	1480
3	25271	9.7	1485
3	25544	9.8	1490
3	25797	9.9	1495
3	26000	10	1500
3	26228	10.1	1505
3	26477	10.2	1510
3	26697	10.3	1515
3	26950	10.4	1520
3	27181	10.5	1525
3	27422	10.6	1530
3	27650	10.7	1535
3	27900	10.8	1540
3	28158	10.9	1545
3	28390	11	1550
3	28633	11.1	1555
3	28897	11.2	1560
3	29152	11.3	1565
3	29404	11.4	1570
3	29668	11.5	1575
3	29902	11.6	1580
3	30160	11.7	1585
3	30409	11.8	1590
3	30641	11.9	1595
3	30897	12	1600
3	31173	12.1	1605
3	31426	12.2	1610
3	31690	12.3	1615
3	31933	12.4	1620
3	32204	12.5	1625
3	32435	12.6	1630
3	32683	12.7	1635
3	32912	12.8	1640
3	33167	12.9	1645
3	33439	13	1650
3	33706	13.1	1655
3	33946	13.2	1660
3	34160	13.3	1665
3	34400	13.4	1670
3	34639	13.5	1675
3	34904	13.6	1680
3	35146	13.7	1685
3	35382	13.8	1690
3	35603	13.9	1695
3	35846	14	1700
3	36095	14.1	1705
3	36371	14.2	1710
3	36617	14.3	1715
3	36833	14.4	1720
3	37093	14.5	1725
3	37374	14.6	1730
3	37622	14.7	1735
3	37874	14.8	1740
3	38137	14.9	1745
3	38386	15	1750
3	38624	15.1	1755
3	38886	15.2	1760
3	39143	15.3	1765
3	39399	15.4	1770
3	39614	15.5	1775
3	39857	15.6	1780
3	40127	15.7	1785
3	40351	15.8	1790
3	40600	15.9	1795
3	40875	16	1800
3	41142	16.1	1805
3	41407	16.2	1810
3	41672	16.3	1815
3	41923	16.4	1820
3	42178	16.5	1825
3	42382	16.6	1830
3	42622	16.7	1835
3	42875	16.8	1840
3	43143	16.9	1845
3	43381	17	1850
3	43635	17.1	1855
3	43871	17.2	1860
3	44114	17.3	1865
3	44349	17.4	1870
3	44587	17.5	1875
3	44830	17.6	1880
3	45048	17.7	1885
3	45290	17.8	1890
3	45565	17.9	1895
3	45810	18	1900
3	46055	18.1	1905
3	46310	18.2	1910
3	46539	18.3	1915
3	46797	18.4	1920
3	47043	18.5	1925
3	47168	18.553002507	1927.65012535
3	47298	18.6	1930
3	47539	18.7	1935
3	47777	18.8	1940
3	48030	18.9	1945
3	48290	19	1950
3	48556	19.1	1955
3	48805	19.2	1960
3	49061	19.3	1965
3	49305	19.4	1970
3	49572	19.5	1975
3	49822	19.6	1980
3	50065	19.7	1985
3	50298	19.8	1990
3	50513	19.9	1995
3	50746	20	2000
3	50984	20.1	2005
3	51232	20.2	2010
3	51480	20.3	2015
3	51747	20.4	2020
3	52005	20.5	2025
3	52250	20.6	2030
3	52490	20.7	2035
3	52711	20.8	2040
3	52964	20.9	2045
3	53181	21	2050
3	53451	21.1	2055
3	53698	21.2	2060
3	53981	21.3	2065
3	54221	21.4	2070
3	54491	21.5	2075
3	54737	21.6	2080
3	55000	21.7	2085
3	55238	21.8	2090
3	55472	21.9	2095
3	55726	22	2100
3	55964	22.1	2105
3	56194	22.2	2110
3	56459	22.3	2115
3	56700	22.4	2120
3	56964	22.5	2125
3	57209	22.6	2130
3	57477	22.7	2135
3	57731	22.8	2140
3	57959	22.9	2145
3	58213	23	2150
3	58458	23.1	2155
3	58681	23.2	2160
3	58934	23.3	2165
3	59166	23.4	2170
3	59439	23.5	2175
3	59684	23.6	2180
3	59932	23.7	2185
3	60193	23.8	2190
3	60447	23.9	2195
3	60701	24	2200
3	60948	24.1	2205
3	61184	24.2	2210
3	61404	24.3	2215
3	61640	24.4	2220
3	61902	24.5	2225
3	62150	24.6	2230
3	62419	24.7	2235
3	62661	24.8	2240
3	62908	24.9	2245
3	63179	25	2250
4	1908	0.3	5000
4	2137	0.4	5000
4	2364	0.5	5000
4	2616	0.6	5000
4	2852	0.7	5000
4	3098	0.8	5000
4	3353	0.9	5000
4	3616	1	5000
4	3837	1.1	5000
4	4090	1.2	5000
4	4348	1.3	5000
4	4594	1.4	5000
4	4836	1.5	5000
4	5087	1.6	5000
4	5348	1.7	5000
4	5572	1.8	5000
4	5814	1.9	5000
4	6073	2	5000
4	6313	2.1	5000
4	6569	2.2	5000
4	6808	2.3	5000
4	7061	2.4	5000
4	7337	2.5	5000
4	7592	2.6	5000
4	7850	2.7	5000
4	8100	2.8	5000
4	8364	2.9	5000
4	8612	3	5000
4	8880	3.1	5000
4	9147	3.2	5000
4	9378	3.3	5000
4	9583	3.4	5000
4	9823	3.5	5000
4	10077	3.6	5000
4	10315	3.7	5000
4	10563	3.8	5000
4	10815	3.9	5000
4	11061	4	5000
4	11321	4.1	5000
4	11585	4.2	5000
4	11824	4.3	5000
4	12080	4.4	5000
4	12296	4.5	5000
4	12530	4.6	5000
4	12788	4.7	5000
4	13040	4.8	5000
4	13284	4.9	5000
4	13545	5	5000
4	13815	5.1	5000
4	14071	5.2	5000
4	14312	5.3	5000
4	14587	5.4	5000
4	14848	5.5	5000
4	15048	5.6	5000
4	15298	5.7	5000
4	15548	5.8	5000
4	15817	5.9	5000
4	16047	6	5000
4	16303	6.1	5000
4	16553	6.2	5000
4	16814	6.3	5000
4	17081	6.4	5000
4	17329	6.5	5000
4	17581	6.6	5000
4	17779	6.7	5000
4	18044	6.8	5000
4	18291	6.9	5000
4	18509	7	5000
4	18777	7.1	5000
4	19029	7.2	5000
4	19271	7.3	5000
4	19557	7.4	5000
4	19803	7.5	5000
4	20063	7.6	5000
4	20201	7.664032155	5000
4	20304	7.7	5000
4	20548	7.8	5000
4	20803	7.9	5000
4	21067	8	5000
4	21326	8.1	5000
4	21588	8.2	5000
4	21841	8.3	5000
4	22073	8.4	5000
4	22299	8.5	5000
4	22526	8.6	5000
4	22767	8.7	5000
4	23014	8.8	5000
4	23254	8.9	5000
4	23511	9	5000
4	23767	9.1	5000
4	24026	9.2	5000
4	24272	9.3	5000
4	24521	9.4	5000
4	24782	9.5	5000
4	25054	9.6	5000
4	25272	9.7	5000
4	25545	9.8	5000
4	25798	9.9	5000
4	26001	10	5000
4	26229	10.1	5000
4	26478	10.2	5000
4	26698	10.3	5000
4	26951	10.4	5000
4	27182	10.5	5000
4	27423	10.6	5000
4	27651	10.7	5000
4	27901	10.8	5000
4	28159	10.9	5000
4	28391	11	5000
4	28634	11.1	5000
4	28898	11.2	5000
4	29153	11.3	5000
4	29405	11.4	5000
4	29669	11.5	5000
4	29903	11.6	5000
4	30161	11.7	5000
4	30410	11.8	5000
4	30642	11.9	5000
4	30898	12	5000
4	31174	12.1	5000
4	31427	12.2	5000
4	31691	12.3	5000
4	31934	12.4	5000
4	32205	12.5	5000
4	32436	12.6	5000
4	32684	12.7	5000
4	32913	12.8	5000
4	33168	12.9	5000
4	33440	13	5000
4	33707	13.1	5000
4	33947	13.2	5000
4	34161	13.3	5000
4	34401	13.4	5000
4	34640	13.5	5000
4	34905	13.6	5000
4	35147	13.7	5000
4	35383	13.8	5000
4	35604	13.9	5000
4	35847	14	5000
4	36096	14.1	5000
4	36372	14.2	5000
4	36618	14.3	5000
4	36834	14.4	5000
4	37094	14.5	5000
4	37375	14.6	5000
4	37623	14.7	5000
4	37875	14.8	5000
4	38138	14.9	5000
4	38387	15	5000
4	38625	15.1	5000
4	38887	15.2	5000
4	39144	15.3	5000
4	39400	15.4	5000
4	39615	15.5	5000
4	39858	15.6	5000
4	40128	15.7	5000
4	40352	15.8	5000
4	40601	15.9	5000
4	40876	16	5000
4	41143	16.1	5000
4	41408	16.2	5000
4	41673	16.3	5000
4	41924	16.4	5000
4	42179	16.5	5000
4	42383	16.6	5000
4	42623	16.7	5000
4	42876	16.8	5000
4	43144	16.9	5000
4	43382	17	5000
4	43636	17.1	5000
4	43872	17.2	5000
4	44115	17.3	5000
4	44350	17.4	5000
4	44588	17.5	5000
4	44831	17.6	5000
4	45049	17.7	5000
4	45291	17.8	5000
4	45566	17.9	5000
4	45811	18	5000
4	46056	18.1	5000
4	46311	18.2	5000
4	46540	18.3	5000
4	46798	18.4	5000
4	47044	18.5	5000
4	47168	18.553002507	5000
4	47299	18.6	5000
4	47540	18.7	5000
4	47778	18.8	5000
4	48031	18.9	5000
4	48291	19	5000
4	48557	19.1	5000
4	48806	19.2	5000
4	49062	19.3	5000
4	49306	19.4	5000
4	49573	19.5	5000
4	49823	19.6	5000
4	50066	19.7	5000
4	50299	19.8	5000
4	50514	19.9	5000
4	50747	20	5000
4	50985	20.1	5000
4	51233	20.2	5000
4	51481	20.3	5000
4	51748	20.4	5000
4	52006	20.5	5000
4	52251	20.6	5000
4	52491	20.7	5000
4	52712	20.8	5000
4	52965	20.9	5000
4	53182	21	5000
4	53452	21.1	5000
4	53699	21.2	5000
4	53982	21.3	5000
4	54222	21.4	5000
4	54492	21.5	5000
4	54738	21.6	5000
4	55001	21.7	5000
4	55239	21.8	5000
4	55473	21.9	5000
4	55727	22	5000
4	55965	22.1	5000
4	56195	22.2	5000
4	56460	22.3	5000
4	56701	22.4	5000
4	56965	22.5	5000
4	57210	22.6	5000
4	57478	22.7	5000
4	57732	22.8	5000
4	57960	22.9	5000
4	58214	23	5000
4	58459	23.1	5000
4	58682	23.2	5000
4	58935	23.3	5000
4	59167	23.4	5000
4	59440	23.5	5000
4	59685	23.6	5000
4	59933	23.7	5000
4	60194	23.8	5000
4	60448	23.9	5000
4	60702	24	5000
4	60949	24.1	5000
4	61185	24.2	5000
4	61405	24.3	5000
4	61641	24.4	5000
4	61903	24.5	5000
4	62151	24.6	5000
4	62420	24.7	5000
4	62662	24.8	5000
4	62909	24.9	5000
4	63180	25	5000
5	1908	0.3	1015
5	2137	0.4	1020
5	2364	0.5	1025
5	2616	0.6	1030
5	2852	0.7	1035
5	3098	0.8	1040
5	3353	0.9	1045
5	3616	1	1050
5	3837	1.1	1055
5	4090	1.2	1060
5	4348	1.3	1065
5	4594	1.4	1070
5	4836	1.5	1075
5	5087	1.6	1080
5	5348	1.7	1085
5	5572	1.8	1090
5	5814	1.9	1095
5	6073	2	1100
5	6313	2.1	1105
5	6569	2.2	1110
5	6808	2.3	1115
5	7061	2.4	1120
5	7337	2.5	1125
5	7592	2.6	1130
5	7850	2.7	1135
5	8100	2.8	1140
5	8364	2.9	1145
5	8612	3	1150
5	8880	3.1	1155
5	9147	3.2	1160
5	9378	3.3	1165
5	9583	3.4	1170
5	9823	3.5	1175
5	10077	3.6	1180
5	10315	3.7	1185
5	10563	3.8	1190
5	10815	3.9	1195
5	11061	4	1200
5	11321	4.1	1205
5	11585	4.2	1210
5	11824	4.3	1215
5	12080	4.4	1220
5	12296	4.5	1225
5	12530	4.6	1230
5	12788	4.7	1235
5	13040	4.8	1240
5	13284	4.9	1245
5	13545	5	1250
5	13815	5.1	1255
5	14071	5.2	1260
5	14312	5.3	1265
5	14587	5.4	1270
5	14848	5.5	1275
5	15048	5.6	1280
5	15298	5.7	1285
5	15548	5.8	1290
5	15817	5.9	1295
5	16047	6	1300
5	16303	6.1	1305
5	16553	6.2	1310
5	16814	6.3	1315
5	17081	6.4	1320
5	17329	6.5	1325
5	17581	6.6	1330
5	17779	6.7	1335
5	18044	6.8	1340
5	18291	6.9	1345
5	18509	7	1350
5	18777	7.1	1355
5	19029	7.2	1360
5	19271	7.3	1365
5	19557	7.4	1370
5	19803	7.5	1375
5	20063	7.6	1380
5	20201	7.664032155	1383.20160775
5	20304	7.7	1385
5	20548	7.8	1390
5	20803	7.9	1395
5	21067	8	1400
5	21326	8.1	1405
5	21588	8.2	1410
5	21841	8.3	1415
5	22073	8.4	1420
5	22299	8.5	1425
5	22526	8.6	1430
5	22767	8.7	1435
5	23014	8.8	1440
5	23254	8.9	1445
5	23511	9	1450
5	23767	9.1	1455
5	24026	9.2	1460
5	24272	9.3	1465
5	24521	9.4	1470
5	24782	9.5	1475
5	25054	9.6	1480
5	25272	9.7	1485
5	25545	9.8	1490
5	25798	9.9	1495
5	26001	10	1500
5	26229	10.1	1505
5	26478	10.2	1510
5	26698	10.3	1515
5	26951	10.4	1520
5	27182	10.5	1525
5	27423	10.6	1530
5	27651	10.7	1535
5	27901	10.8	1540
5	28159	10.9	1545
5	28391	11	1550
5	28634	11.1	1555
5	28898	11.2	1560
5	29153	11.3	1565
5	29405	11.4	1570
5	29669	11.5	1575
5	29903	11.6	1580
5	30161	11.7	1585
5	30410	11.8	1590
5	30642	11.9	1595
5	30898	12	1600
5	31174	12.1	1605
5	31427	12.2	1610
5	31691	12.3	1615
5	31934	12.4	1620
5	32205	12.5	1625
5	32436	12.6	1630
5	32684	12.7	1635
5	32913	12.8	1640
5	33168	12.9	1645
5	33440	13	1650
5	33707	13.1	1655
5	33947	13.2	1660
5	34161	13.3	1665
5	34401	13.4	1670
5	34640	13.5	1675
5	34905	13.6	1680
5	35147	13.7	1685
5	35383	13.8	1690
5	35604	13.9	1695
5	35847	14	1700
5	36096	14.1	1705
5	36372	14.2	1710
5	36618	14.3	1715
5	36834	14.4	1720
5	37094	14.5	1725
5	37375	14.6	1730
5	37623	14.7	1735
5	37875	14.8	1740
5	38138	14.9	1745
5	38387	15	1750
5	38625	15.1	1755
5	38887	15.2	1760
5	39144	15.3	1765
5	39400	15.4	1770
5	39615	15.5	1775
5	39858	15.6	1780
5	40128	15.7	1785
5	40352	15.8	1790
5	40601	15.9	1795
5	40876	16	1800
5	41143	16.1	1805
5	41408	16.2	1810
5	41673	16.3	1815
5	41924	16.4	1820
5	42179	16.5	1825
5	42383	16.6	1830
5	42623	16.7	1835
5	42876	16.8	1840
5	43144	16.9	1845
5	43382	17	1850
5	43636	17.1	1855
5	43872	17.2	1860
5	44115	17.3	1865
5	44350	17.4	1870
5	44588	17.5	1875
5	44831	17.6	1880
5	45049	17.7	1885
5	45291	17.8	1890
5	45566	17.9	1895
5	45811	18	1900
5	46056	18.1	1905
5	46311	18.2	1910
5	46540	18.3	1915
5	46798	18.4	1920
5	47044	18.5	1925
5	47168	18.553002507	1927.65012535
5	47299	18.6	1930
5	47540	18.7	1935
5	47778	18.8	1940
5	48031	18.9	1945
5	48291	19	1950
5	48557	19.1	1955
5	48806	19.2	1960
5	49062	19.3	1965
5	49306	19.4	1970
5	49573	19.5	1975
5	49823	19.6	1980
5	50066	19.7	1985
5	50299	19.8	1990
5	50514	19.9	1995
5	50747	20	2000
5	50985	20.1	2005
5	51233	20.2	2010
5	51481	20.3	2015
5	51748	20.4	2020
5	52006	20.5	2025
5	52251	20.6	2030
5	52491	20.7	2035
5	52712	20.8	2040
5	52965	20.9	2045
5	53182	21	2050
5	53452	21.1	2055
5	53699	21.2	2060
5	53982	21.3	2065
5	54222	21.4	2070
5	54492	21.5	2075
5	54738	21.6	2080
5	55001	21.7	2085
5	55239	21.8	2090
5	55473	21.9	2095
5	55727	22	2100
5	55965	22.1	2105
5	56195	22.2	2110
5	56460	22.3	2115
5	56701	22.4	2120
5	56965	22.5	2125
5	57210	22.6	2130
5	57478	22.7	2135
5	57732	22.8	2140
5	57960	22.9	2145
5	58214	23	2150
5	58459	23.1	2155
5	58682	23.2	2160
5	58935	23.3	2165
5	59167	23.4	2170
5	59440	23.5	2175
5	59685	23.6	2180
5	59933	23.7	2185
5	60194	23.8	2190
5	60448	23.9	2195
5	60702	24	2200
5	60949	24.1	2205
5	61185	24.2	2210
5	61405	24.3	2215
5	61641	24.4	2220
5	61903	24.5	2225
5	62151	24.6	2230
5	62420	24.7	2235
5	62662	24.8	2240
5	62909	24.9	2245
5	63180	25	2250
6	1909	0.3	7000
6	2138	0.4	7000
6	2365	0.5	7000
6	2617	0.6	7000
6	2853	0.7	7000
6	3099	0.8	7000
6	3354	0.9	7000
6	3617	1	7000
6	3838	1.1	7000
6	4091	1.2	7000
6	4349	1.3	7000
6	4595	1.4	7000
6	4837	1.5	7000
6	5088	1.6	7000
6	5349	1.7	7000
6	5573	1.8	7000
6	5815	1.9	7000
6	6074	2	7000
6	6314	2.1	7000
6	6570	2.2	7000
6	6809	2.3	7000
6	7062	2.4	7000
6	7338	2.5	7000
6	7593	2.6	7000
6	7851	2.7	7000
6	8101	2.8	7000
6	8365	2.9	7000
6	8613	3	7000
6	8881	3.1	7000
6	9148	3.2	7000
6	9379	3.3	7000
6	9584	3.4	7000
6	9824	3.5	7000
6	10078	3.6	7000
6	10316	3.7	7000
6	10564	3.8	7000
6	10816	3.9	7000
6	11062	4	7000
6	11322	4.1	7000
6	11586	4.2	7000
6	11825	4.3	7000
6	12081	4.4	7000
6	12297	4.5	7000
6	12531	4.6	7000
6	12789	4.7	7000
6	13041	4.8	7000
6	13285	4.9	7000
6	13546	5	7000
6	13816	5.1	7000
6	14072	5.2	7000
6	14313	5.3	7000
6	14588	5.4	7000
6	14849	5.5	7000
6	15049	5.6	7000
6	15299	5.7	7000
6	15549	5.8	7000
6	15818	5.9	7000
6	16048	6	7000
6	16304	6.1	7000
6	16554	6.2	7000
6	16815	6.3	7000
6	17082	6.4	7000
6	17330	6.5	7000
6	17582	6.6	7000
6	17780	6.7	7000
6	18045	6.8	7000
6	18292	6.9	7000
6	18510	7	7000
6	18778	7.1	7000
6	19030	7.2	7000
6	19272	7.3	7000
6	19558	7.4	7000
6	19804	7.5	7000
6	20064	7.6	7000
6	20201	7.664032155	7000
6	20305	7.7	7000
6	20549	7.8	7000
6	20804	7.9	7000
6	21068	8	7000
6	21327	8.1	7000
6	21589	8.2	7000
6	21842	8.3	7000
6	22074	8.4	7000
6	22300	8.5	7000
6	22527	8.6	7000
6	22768	8.7	7000
6	23015	8.8	7000
6	23255	8.9	7000
6	23512	9	7000
6	23768	9.1	7000
6	24027	9.2	7000
6	24273	9.3	7000
6	24522	9.4	7000
6	24783	9.5	7000
6	25055	9.6	7000
6	25273	9.7	7000
6	25546	9.8	7000
6	25799	9.9	7000
6	26002	10	7000
6	26230	10.1	7000
6	26479	10.2	7000
6	26699	10.3	7000
6	26952	10.4	7000
6	27183	10.5	7000
6	27424	10.6	7000
6	27652	10.7	7000
6	27902	10.8	7000
6	28160	10.9	7000
6	28392	11	7000
6	28635	11.1	7000
6	28899	11.2	7000
6	29154	11.3	7000
6	29406	11.4	7000
6	29670	11.5	7000
6	29904	11.6	7000
6	30162	11.7	7000
6	30411	11.8	7000
6	30643	11.9	7000
6	30899	12	7000
6	31175	12.1	7000
6	31428	12.2	7000
6	31692	12.3	7000
6	31935	12.4	7000
6	32206	12.5	7000
6	32437	12.6	7000
6	32685	12.7	7000
6	32914	12.8	7000
6	33169	12.9	7000
6	33441	13	7000
6	33708	13.1	7000
6	33948	13.2	7000
6	34162	13.3	7000
6	34402	13.4	7000
6	34641	13.5	7000
6	34906	13.6	7000
6	35148	13.7	7000
6	35384	13.8	7000
6	35605	13.9	7000
6	35848	14	7000
6	36097	14.1	7000
6	36373	14.2	7000
6	36619	14.3	7000
6	36835	14.4	7000
6	37095	14.5	7000
6	37376	14.6	7000
6	37624	14.7	7000
6	37876	14.8	7000
6	38139	14.9	7000
6	38388	15	7000
6	38626	15.1	7000
6	38888	15.2	7000
6	39145	15.3	7000
6	39401	15.4	7000
6	39616	15.5	7000
6	39859	15.6	7000
6	40129	15.7	7000
6	40353	15.8	7000
6	40602	15.9	7000
6	40877	16	7000
6	41144	16.1	7000
6	41409	16.2	7000
6	41674	16.3	7000
6	41925	16.4	7000
6	42180	16.5	7000
6	42384	16.6	7000
6	42624	16.7	7000
6	42877	16.8	7000
6	43145	16.9	7000
6	43383	17	7000
6	43637	17.1	7000
6	43873	17.2	7000
6	44116	17.3	7000
6	44351	17.4	7000
6	44589	17.5	7000
6	44832	17.6	7000
6	45050	17.7	7000
6	45292	17.8	7000
6	45567	17.9	7000
6	45812	18	7000
6	46057	18.1	7000
6	46312	18.2	7000
6	46541	18.3	7000
6	46799	18.4	7000
6	47045	18.5	7000
6	47168	18.553002507	7000
6	47300	18.6	7000
6	47541	18.7	7000
6	47779	18.8	7000
6	48032	18.9	7000
6	48292	19	7000
6	48558	19.1	7000
6	48807	19.2	7000
6	49063	19.3	7000
6	49307	19.4	7000
6	49574	19.5	7000
6	49824	19.6	7000
6	50067	19.7	7000
6	50300	19.8	7000
6	50515	19.9	7000
6	50748	20	7000
6	50986	20.1	7000
6	51234	20.2	7000
6	51482	20.3	7000
6	51749	20.4	7000
6	52007	20.5	7000
6	52252	20.6	7000
6	52492	20.7	7000
6	52713	20.8	7000
6	52966	20.9	7000
6	53183	21	7000
6	53453	21.1	7000
6	53700	21.2	7000
6	53983	21.3	7000
6	54223	21.4	7000
6	54493	21.5	7000
6	54739	21.6	7000
6	55002	21.7	7000
6	55240	21.8	7000
6	55474	21.9	7000
6	55728	22	7000
6	55966	22.1	7000
6	56196	22.2	7000
6	56461	22.3	7000
6	56702	22.4	7000
6	56966	22.5	7000
6	57211	22.6	7000
6	57479	22.7	7000
6	57733	22.8	7000
6	57961	22.9	7000
6	58215	23	7000
6	58460	23.1	7000
6	58683	23.2	7000
6	58936	23.3	7000
6	59168	23.4	7000
6	59441	23.5	7000
6	59686	23.6	7000
6	59934	23.7	7000
6	60195	23.8	7000
6	60449	23.9	7000
6	60703	24	7000
6	60950	24.1	7000
6	61186	24.2	7000
6	61406	24.3	7000
6	61642	24.4	7000
6	61904	24.5	7000
6	62152	24.6	7000
6	62421	24.7	7000
6	62663	24.8	7000
6	62910	24.9	7000
6	63181	25	7000
7	1909	0.3	1015
7	2138	0.4	1020
7	2365	0.5	1025
7	2617	0.6	1030
7	2853	0.7	1035
7	3099	0.8	1040
7	3354	0.9	1045
7	3617	1	1050
7	3838	1.1	1055
7	4091	1.2	1060
7	4349	1.3	1065
7	4595	1.4	1070
7	4837	1.5	1075
7	5088	1.6	1080
7	5349	1.7	1085
7	5573	1.8	1090
7	5815	1.9	1095
7	6074	2	1100
7	6314	2.1	1105
7	6570	2.2	1110
7	6809	2.3	1115
7	7062	2.4	1120
7	7338	2.5	1125
7	7593	2.6	1130
7	7851	2.7	1135
7	8101	2.8	1140
7	8365	2.9	1145
7	8613	3	1150
7	8881	3.1	1155
7	9148	3.2	1160
7	9379	3.3	1165
7	9584	3.4	1170
7	9824	3.5	1175
7	10078	3.6	1180
7	10316	3.7	1185
7	10564	3.8	1190
7	10816	3.9	1195
7	11062	4	1200
7	11322	4.1	1205
7	11586	4.2	1210
7	11825	4.3	1215
7	12081	4.4	1220
7	12297	4.5	1225
7	12531	4.6	1230
7	12789	4.7	1235
7	13041	4.8	1240
7	13285	4.9	1245
7	13546	5	1250
7	13816	5.1	1255
7	14072	5.2	1260
7	14313	5.3	1265
7	14588	5.4	1270
7	14849	5.5	1275
7	15049	5.6	1280
7	15299	5.7	1285
7	15549	5.8	1290
7	15818	5.9	1295
7	16048	6	1300
7	16304	6.1	1305
7	16554	6.2	1310
7	16815	6.3	1315
7	17082	6.4	1320
7	17330	6.5	1325
7	17582	6.6	1330
7	17780	6.7	1335
7	18045	6.8	1340
7	18292	6.9	1345
7	18510	7	1350
7	18778	7.1	1355
7	19030	7.2	1360
7	19272	7.3	1365
7	19558	7.4	1370
7	19804	7.5	1375
7	20064	7.6	1380
7	20201	7.664032155	1383.20160775
7	20305	7.7	1385
7	20549	7.8	1390
7	20804	7.9	1395
7	21068	8	1400
7	21327	8.1	1405
7	21589	8.2	1410
7	21842	8.3	1415
7	22074	8.4	1420
7	22300	8.5	1425
7	22527	8.6	1430
7	22768	8.7	1435
7	23015	8.8	1440
7	23255	8.9	1445
7	23512	9	1450
7	23768	9.1	1455
7	24027	9.2	1460
7	24273	9.3	1465
7	24522	9.4	1470
7	24783	9.5	1475
7	25055	9.6	1480
7	25273	9.7	1485
7	25546	9.8	1490
7	25799	9.9	1495
7	26002	10	1500
7	26230	10.1	1505
7	26479	10.2	1510
7	26699	10.3	1515
7	26952	10.4	1520
7	27183	10.5	1525
7	27424	10.6	1530
7	27652	10.7	1535
7	27902	10.8	1540
7	28160	10.9	1545
7	28392	11	1550
7	28635	11.1	1555
7	28899	11.2	1560
7	29154	11.3	1565
7	29406	11.4	1570
7	29670	11.5	1575
7	29904	11.6	1580
7	30162	11.7	1585
7	30411	11.8	1590
7	30643	11.9	1595
7	30899	12	1600
7	31175	12.1	1605
7	31428	12.2	1610
7	31692	12.3	1615
7	31935	12.4	1620
7	32206	12.5	1625
7	32437	12.6	1630
7	32685	12.7	1635
7	32914	12.8	1640
7	33169	12.9	1645
7	33441	13	1650
7	33708	13.1	1655
7	33948	13.2	1660
7	34162	13.3	1665
7	34402	13.4	1670
7	34641	13.5	1675
7	34906	13.6	1680
7	35148	13.7	1685
7	35384	13.8	1690
7	35605	13.9	1695
7	35848	14	1700
7	36097	14.1	1705
7	36373	14.2	1710
7	36619	14.3	1715
7	36835	14.4	1720
7	37095	14.5	1725
7	37376	14.6	1730
7	37624	14.7	1735
7	37876	14.8	1740
7	38139	14.9	1745
7	38388	15	1750
7	38626	15.1	1755
7	38888	15.2	1760
7	39145	15.3	1765
7	39401	15.4	1770
7	39616	15.5	1775
7	39859	15.6	1780
7	40129	15.7	1785
7	40353	15.8	1790
7	40602	15.9	1795
7	40877	16	1800
7	41144	16.1	1805
7	41409	16.2	1810
7	41674	16.3	1815
7	41925	16.4	1820
7	42180	16.5	1825
7	42384	16.6	1830
7	42624	16.7	1835
7	42877	16.8	1840
7	43145	16.9	1845
7	43383	17	1850
7	43637	17.1	1855
7	43873	17.2	1860
7	44116	17.3	1865
7	44351	17.4	1870
7	44589	17.5	1875
7	44832	17.6	1880
7	45050	17.7	1885
7	45292	17.8	1890
7	45567	17.9	1895
7	45812	18	1900
7	46057	18.1	1905
7	46312	18.2	1910
7	46541	18.3	1915
7	46799	18.4	1920
7	47045	18.5	1925
7	47168	18.553002507	1927.65012535
7	47300	18.6	1930
7	47541	18.7	1935
7	47779	18.8	1940
7	48032	18.9	1945
7	48292	19	1950
7	48558	19.1	1955
7	48807	19.2	1960
7	49063	19.3	1965
7	49307	19.4	1970
7	49574	19.5	1975
7	49824	19.6	1980
7	50067	19.7	1985
7	50300	19.8	1990
7	50515	19.9	1995
7	50748	20	2000
7	50986	20.1	2005
7	51234	20.2	2010
7	51482	20.3	2015
7	51749	20.4	2020
7	52007	20.5	2025
7	52252	20.6	2030
7	52492	20.7	2035
7	52713	20.8	2040
7	52966	20.9	2045
7	53183	21	2050
7	53453	21.1	2055
7	53700	21.2	2060
7	53983	21.3	2065
7	54223	21.4	2070
7	54493	21.5	2075
7	54739	21.6	2080
7	55002	21.7	2085
7	55240	21.8	2090
7	55474	21.9	2095
7	55728	22	2100
7	55966	22.1	2105
7	56196	22.2	2110
7	56461	22.3	2115
7	56702	22.4	2120
7	56966	22.5	2125
7	57211	22.6	2130
7	57479	22.7	2135
7	57733	22.8	2140
7	57961	22.9	2145
7	58215	23	2150
7	58460	23.1	2155
7	58683	23.2	2160
7	58936	23.3	2165
7	59168	23.4	2170
7	59441	23.5	2175
7	59686	23.6	2180
7	59934	23.7	2185
7	60195	23.8	2190
7	60449	23.9	2195
7	60703	24	2200
7	60950	24.1	2205
7	61186	24.2	2210
7	61406	24.3	2215
7	61642	24.4	2220
7	61904	24.5	2225
7	62152	24.6	2230
7	62421	24.7	2235
7	62663	24.8	2240
7	62910	24.9	2245
7	63181	25	2250
8	1910	0.3	9000
8	2139	0.4	9000
8	2366	0.5	9000
8	2618	0.6	9000
8	2854	0.7	9000
8	3100	0.8	9000
8	3355	0.9	9000
8	3618	1	9000
8	3839	1.1	9000
8	4092	1.2	9000
8	4350	1.3	9000
8	4596	1.4	9000
8	4838	1.5	9000
8	5089	1.6	9000
8	5350	1.7	9000
8	5574	1.8	9000
8	5816	1.9	9000
8	6075	2	9000
8	6315	2.1	9000
8	6571	2.2	9000
8	6810	2.3	9000
8	7063	2.4	9000
8	7339	2.5	9000
8	7594	2.6	9000
8	7852	2.7	9000
8	8102	2.8	9000
8	8366	2.9	9000
8	8614	3	9000
8	8882	3.1	9000
8	9149	3.2	9000
8	9380	3.3	9000
8	9585	3.4	9000
8	9825	3.5	9000
8	10079	3.6	9000
8	10317	3.7	9000
8	10565	3.8	9000
8	10817	3.9	9000
8	11063	4	9000
8	11323	4.1	9000
8	11587	4.2	9000
8	11826	4.3	9000
8	12082	4.4	9000
8	12298	4.5	9000
8	12532	4.6	9000
8	12790	4.7	9000
8	13042	4.8	9000
8	13286	4.9	9000
8	13547	5	9000
8	13817	5.1	9000
8	14073	5.2	9000
8	14314	5.3	9000
8	14589	5.4	9000
8	14850	5.5	9000
8	15050	5.6	9000
8	15300	5.7	9000
8	15550	5.8	9000
8	15819	5.9	9000
8	16049	6	9000
8	16305	6.1	9000
8	16555	6.2	9000
8	16816	6.3	9000
8	17083	6.4	9000
8	17331	6.5	9000
8	17583	6.6	9000
8	17781	6.7	9000
8	18046	6.8	9000
8	18293	6.9	9000
8	18511	7	9000
8	18779	7.1	9000
8	19031	7.2	9000
8	19273	7.3	9000
8	19559	7.4	9000
8	19805	7.5	9000
8	20065	7.6	9000
8	20201	7.664032155	9000
8	20306	7.7	9000
8	20550	7.8	9000
8	20805	7.9	9000
8	21069	8	9000
8	21328	8.1	9000
8	21590	8.2	9000
8	21843	8.3	9000
8	22075	8.4	9000
8	22301	8.5	9000
8	22528	8.6	9000
8	22769	8.7	9000
8	23016	8.8	9000
8	23256	8.9	9000
8	23513	9	9000
8	23769	9.1	9000
8	24028	9.2	9000
8	24274	9.3	9000
8	24523	9.4	9000
8	24784	9.5	9000
8	25056	9.6	9000
8	25274	9.7	9000
8	25547	9.8	9000
8	25800	9.9	9000
8	26003	10	9000
8	26231	10.1	9000
8	26480	10.2	9000
8	26700	10.3	9000
8	26953	10.4	9000
8	27184	10.5	9000
8	27425	10.6	9000
8	27653	10.7	9000
8	27903	10.8	9000
8	28161	10.9	9000
8	28393	11	9000
8	28636	11.1	9000
8	28900	11.2	9000
8	29155	11.3	9000
8	29407	11.4	9000
8	29671	11.5	9000
8	29905	11.6	9000
8	30163	11.7	9000
8	30412	11.8	9000
8	30644	11.9	9000
8	30900	12	9000
8	31176	12.1	9000
8	31429	12.2	9000
8	31693	12.3	9000
8	31936	12.4	9000
8	32207	12.5	9000
8	32438	12.6	9000
8	32686	12.7	9000
8	32915	12.8	9000
8	33170	12.9	9000
8	33442	13	9000
8	33709	13.1	9000
8	33949	13.2	9000
8	34163	13.3	9000
8	34403	13.4	9000
8	34642	13.5	9000
8	34907	13.6	9000
8	35149	13.7	9000
8	35385	13.8	9000
8	35606	13.9	9000
8	35849	14	9000
8	36098	14.1	9000
8	36374	14.2	9000
8	36620	14.3	9000
8	36836	14.4	9000
8	37096	14.5	9000
8	37377	14.6	9000
8	37625	14.7	9000
8	37877	14.8	9000
8	38140	14.9	9000
8	38389	15	9000
8	38627	15.1	9000
8	38889	15.2	9000
8	39146	15.3	9000
8	39402	15.4	9000
8	39617	15.5	9000
8	39860	15.6	9000
8	40130	15.7	9000
8	40354	15.8	9000
8	40603	15.9	9000
8	40878	16	9000
8	41145	16.1	9000
8	41410	16.2	9000
8	41675	16.3	9000
8	41926	16.4	9000
8	42181	16.5	9000
8	42385	16.6	9000
8	42625	16.7	9000
8	42878	16.8	9000
8	43146	16.9	9000
8	43384	17	9000
8	43638	17.1	9000
8	43874	17.2	9000
8	44117	17.3	9000
8	44352	17.4	9000
8	44590	17.5	9000
8	44833	17.6	9000
8	45051	17.7	9000
8	45293	17.8	9000
8	45568	17.9	9000
8	45813	18	9000
8	46058	18.1	9000
8	46313	18.2	9000
8	46542	18.3	9000
8	46800	18.4	9000
8	47046	18.5	9000
8	47168	18.553002507	9000
8	47301	18.6	9000
8	47542	18.7	9000
8	47780	18.8	9000
8	48033	18.9	9000
8	48293	19	9000
8	48559	19.1	9000
8	48808	19.2	9000
8	49064	19.3	9000
8	49308	19.4	9000
8	49575	19.5	9000
8	49825	19.6	9000
8	50068	19.7	9000
8	50301	19.8	9000
8	50516	19.9	9000
8	50749	20	9000
8	50987	20.1	9000
8	51235	20.2	9000
8	51483	20.3	9000
8	51750	20.4	9000
8	52008	20.5	9000
8	52253	20.6	9000
8	52493	20.7	9000
8	52714	20.8	9000
8	52967	20.9	9000
8	53184	21	9000
8	53454	21.1	9000
8	53701	21.2	9000
8	53984	21.3	9000
8	54224	21.4	9000
8	54494	21.5	9000
8	54740	21.6	9000
8	55003	21.7	9000
8	55241	21.8	9000
8	55475	21.9	9000
8	55729	22	9000
8	55967	22.1	9000
8	56197	22.2	9000
8	56462	22.3	9000
8	56703	22.4	9000
8	56967	22.5	9000
8	57212	22.6	9000
8	57480	22.7	9000
8	57734	22.8	9000
8	57962	22.9	9000
8	58216	23	9000
8	58461	23.1	9000
8	58684	23.2	9000
8	58937	23.3	9000
8	59169	23.4	9000
8	59442	23.5	9000
8	59687	23.6	9000
8	59935	23.7	9000
8	60196	23.8	9000
8	60450	23.9	9000
8	60704	24	9000
8	60951	24.1	9000
8	61187	24.2	9000
8	61407	24.3	9000
8	61643	24.4	9000
8	61905	24.5	9000
8	62153	24.6	9000
8	62422	24.7	9000
8	62664	24.8	9000
8	62911	24.9	9000
8	63182	25	9000
9	1910	0.3	1015
9	2139	0.4	1020
9	2366	0.5	1025
9	2618	0.6	1030
9	2854	0.7	1035
9	3100	0.8	1040
9	3355	0.9	1045
9	3618	1	1050
9	3839	1.1	1055
9	4092	1.2	1060
9	4350	1.3	1065
9	4596	1.4	1070
9	4838	1.5	1075
9	5089	1.6	1080
9	5350	1.7	1085
9	5574	1.8	1090
9	5816	1.9	1095
9	6075	2	1100
9	6315	2.1	1105
9	6571	2.2	1110
9	6810	2.3	1115
9	7063	2.4	1120
9	7339	2.5	1125
9	7594	2.6	1130
9	7852	2.7	1135
9	8102	2.8	1140
9	8366	2.9	1145
9	8614	3	1150
9	8882	3.1	1155
9	9149	3.2	1160
9	9380	3.3	1165
9	9585	3.4	1170
9	9825	3.5	1175
9	10079	3.6	1180
9	10317	3.7	1185
9	10565	3.8	1190
9	10817	3.9	1195
9	11063	4	1200
9	11323	4.1	1205
9	11587	4.2	1210
9	11826	4.3	1215
9	12082	4.4	1220
9	12298	4.5	1225
9	12532	4.6	1230
9	12790	4.7	1235
9	13042	4.8	1240
9	13286	4.9	1245
9	13547	5	1250
9	13817	5.1	1255
9	14073	5.2	1260
9	14314	5.3	1265
9	14589	5.4	1270
9	14850	5.5	1275
9	15050	5.6	1280
9	15300	5.7	1285
9	15550	5.8	1290
9	15819	5.9	1295
9	16049	6	1300
9	16305	6.1	1305
9	16555	6.2	1310
9	16816	6.3	1315
9	17083	6.4	1320
9	17331	6.5	1325
9	17583	6.6	1330
9	17781	6.7	1335
9	18046	6.8	1340
9	18293	6.9	1345
9	18511	7	1350
9	18779	7.1	1355
9	19031	7.2	1360
9	19273	7.3	1365
9	19559	7.4	1370
9	19805	7.5	1375
9	20065	7.6	1380
9	20201	7.664032155	1383.20160775
9	20306	7.7	1385
9	20550	7.8	1390
9	20805	7.9	1395
9	21069	8	1400
9	21328	8.1	1405
9	21590	8.2	1410
9	21843	8.3	1415
9	22075	8.4	1420
9	22301	8.5	1425
9	22528	8.6	1430
9	22769	8.7	1435
9	23016	8.8	1440
9	23256	8.9	1445
9	23513	9	1450
9	23769	9.1	1455
9	24028	9.2	1460
9	24274	9.3	1465
9	24523	9.4	1470
9	24784	9.5	1475
9	25056	9.6	1480
9	25274	9.7	1485
9	25547	9.8	1490
9	25800	9.9	1495
9	26003	10	1500
9	26231	10.1	1505
9	26480	10.2	1510
9	26700	10.3	1515
9	26953	10.4	1520
9	27184	10.5	1525
9	27425	10.6	1530
9	27653	10.7	1535
9	27903	10.8	1540
9	28161	10.9	1545
9	28393	11	1550
9	28636	11.1	1555
9	28900	11.2	1560
9	29155	11.3	1565
9	29407	11.4	1570
9	29671	11.5	1575
9	29905	11.6	1580
9	30163	11.7	1585
9	30412	11.8	1590
9	30644	11.9	1595
9	30900	12	1600
9	31176	12.1	1605
9	31429	12.2	1610
9	31693	12.3	1615
9	31936	12.4	1620
9	32207	12.5	1625
9	32438	12.6	1630
9	32686	12.7	1635
9	32915	12.8	1640
9	33170	12.9	1645
9	33442	13	1650
9	33709	13.1	1655
9	33949	13.2	1660
9	34163	13.3	1665
9	34403	13.4	1670
9	34642	13.5	1675
9	34907	13.6	1680
9	35149	13.7	1685
9	35385	13.8	1690
9	35606	13.9	1695
9	35849	14	1700
9	36098	14.1	1705
9	36374	14.2	1710
9	36620	14.3	1715
9	36836	14.4	1720
9	37096	14.5	1725
9	37377	14.6	1730
9	37625	14.7	1735
9	37877	14.8	1740
9	38140	14.9	1745
9	38389	15	1750
9	38627	15.1	1755
9	38889	15.2	1760
9	39146	15.3	1765
9	39402	15.4	1770
9	39617	15.5	1775
9	39860	15.6	1780
9	40130	15.7	1785
9	40354	15.8	1790
9	40603	15.9	1795
9	40878	16	1800
9	41145	16.1	1805
9	41410	16.2	1810
9	41675	16.3	1815
9	41926	16.4	1820
9	42181	16.5	1825
9	42385	16.6	1830
9	42625	16.7	1835
9	42878	16.8	1840
9	43146	16.9	1845
9	43384	17	1850
9	43638	17.1	1855
9	43874	17.2	1860
9	44117	17.3	1865
9	44352	17.4	1870
9	44590	17.5	1875
9	44833	17.6	1880
9	45051	17.7	1885
9	45293	17.8	1890
9	45568	17.9	1895
9	45813	18	1900
9	46058	18.1	1905
9	46313	18.2	1910
9	46542	18.3	1915
9	46800	18.4	1920
9	47046	18.5	1925
9	47168	18.553002507	1927.65012535
9	47301	18.6	1930
9	47542	18.7	1935
9	47780	18.8	1940
9	48033	18.9	1945
9	48293	19	1950
9	48559	19.1	1955
9	48808	19.2	1960
9	49064	19.3	1965
9	49308	19.4	1970
9	49575	19.5	1975
9	49825	19.6	1980
9	50068	19.7	1985
9	50301	19.8	1990
9	50516	19.9	1995
9	50749	20	2000
9	50987	20.1	2005
9	51235	20.2	2010
9	51483	20.3	2015
9	51750	20.4	2020
9	52008	20.5	2025
9	52253	20.6	2030
9	52493	20.7	2035
9	52714	20.8	2040
9	52967	20.9	2045
9	53184	21	2050
9	53454	21.1	2055
9	53701	21.2	2060
9	53984	21.3	2065
9	54224	21.4	2070
9	54494	21.5	2075
9	54740	21.6	2080
9	55003	21.7	2085
9	55241	21.8	2090
9	55475	21.9	2095
9	55729	22	2100
9	55967	22.1	2105
9	56197	22.2	2110
9	56462	22.3	2115
9	56703	22.4	2120
9	56967	22.5	2125
9	57212	22.6	2130
9	57480	22.7	2135
9	57734	22.8	2140
9	57962	22.9	2145
9	58216	23	2150
9	58461	23.1	2155
9	58684	23.2	2160
9	58937	23.3	2165
9	59169	23.4	2170
9	59442	23.5	2175
9	59687	23.6	2180
9	59935	23.7	2185
9	60196	23.8	2190
9	60450	23.9	2195
9	60704	24	2200
9	60951	24.1	2205
9	61187	24.2	2210
9	61407	24.3	2215
9	61643	24.4	2220
9	61905	24.5	2225
9	62153	24.6	2230
9	62422	24.7	2235
9	62664	24.8	2240
9	62911	24.9	2245
9	63182	25	2250
10	1911	0.3	1000
10	2140	0.4	1000
10	2367	0.5	1000
10	2619	0.6	1000
10	2855	0.7	1000
10	3101	0.8	1000
10	3356	0.9	1000
10	3619	1	1000
10	3840	1.1	1000
10	4093	1.2	1000
10	4351	1.3	1000
10	4597	1.4	1000
10	4839	1.5	1000
10	5090	1.6	1000
10	5351	1.7	1000
10	5575	1.8	1000
10	5817	1.9	1000
10	6076	2	1000
10	6316	2.1	1000
10	6572	2.2	1000
10	6811	2.3	1000
10	7064	2.4	1000
10	7340	2.5	1000
10	7595	2.6	1000
10	7853	2.7	1000
10	8103	2.8	1000
10	8367	2.9	1000
10	8615	3	1000
10	8883	3.1	1000
10	9150	3.2	1000
10	9381	3.3	1000
10	9586	3.4	1000
10	9826	3.5	1000
10	10080	3.6	1000
10	10318	3.7	1000
10	10566	3.8	1000
10	10818	3.9	1000
10	11064	4	1000
10	11324	4.1	1000
10	11588	4.2	1000
10	11827	4.3	1000
10	12083	4.4	1000
10	12299	4.5	1000
10	12533	4.6	1000
10	12791	4.7	1000
10	13043	4.8	1000
10	13287	4.9	1000
10	13548	5	1000
10	13818	5.1	1000
10	14074	5.2	1000
10	14315	5.3	1000
10	14590	5.4	1000
10	14851	5.5	1000
10	15051	5.6	1000
10	15301	5.7	1000
10	15551	5.8	1000
10	15820	5.9	1000
10	16050	6	1000
10	16306	6.1	1000
10	16556	6.2	1000
10	16817	6.3	1000
10	17084	6.4	1000
10	17332	6.5	1000
10	17584	6.6	1000
10	17782	6.7	1000
10	18047	6.8	1000
10	18294	6.9	1000
10	18512	7	1000
10	18780	7.1	1000
10	19032	7.2	1000
10	19274	7.3	1000
10	19560	7.4	1000
10	19806	7.5	1000
10	20066	7.6	1000
10	20201	7.664032155	1000
10	20307	7.7	1000
10	20551	7.8	1000
10	20806	7.9	1000
10	21070	8	1000
10	21329	8.1	1000
10	21591	8.2	1000
10	21844	8.3	1000
10	22076	8.4	1000
10	22302	8.5	1000
10	22529	8.6	1000
10	22770	8.7	1000
10	23017	8.8	1000
10	23257	8.9	1000
10	23514	9	1000
10	23770	9.1	1000
10	24029	9.2	1000
10	24275	9.3	1000
10	24524	9.4	1000
10	24785	9.5	1000
10	25057	9.6	1000
10	25275	9.7	1000
10	25548	9.8	1000
10	25801	9.9	1000
10	26004	10	1000
10	26232	10.1	1000
10	26481	10.2	1000
10	26701	10.3	1000
10	26954	10.4	1000
10	27185	10.5	1000
10	27426	10.6	1000
10	27654	10.7	1000
10	27904	10.8	1000
10	28162	10.9	1000
10	28394	11	1000
10	28637	11.1	1000
10	28901	11.2	1000
10	29156	11.3	1000
10	29408	11.4	1000
10	29672	11.5	1000
10	29906	11.6	1000
10	30164	11.7	1000
10	30413	11.8	1000
10	30645	11.9	1000
10	30901	12	1000
10	31177	12.1	1000
10	31430	12.2	1000
10	31694	12.3	1000
10	31937	12.4	1000
10	32208	12.5	1000
10	32439	12.6	1000
10	32687	12.7	1000
10	32916	12.8	1000
10	33171	12.9	1000
10	33443	13	1000
10	33710	13.1	1000
10	33950	13.2	1000
10	34164	13.3	1000
10	34404	13.4	1000
10	34643	13.5	1000
10	34908	13.6	1000
10	35150	13.7	1000
10	35386	13.8	1000
10	35607	13.9	1000
10	35850	14	1000
10	36099	14.1	1000
10	36375	14.2	1000
10	36621	14.3	1000
10	36837	14.4	1000
10	37097	14.5	1000
10	37378	14.6	1000
10	37626	14.7	1000
10	37878	14.8	1000
10	38141	14.9	1000
10	38390	15	1000
10	38628	15.1	1000
10	38890	15.2	1000
10	39147	15.3	1000
10	39403	15.4	1000
10	39618	15.5	1000
10	39861	15.6	1000
10	40131	15.7	1000
10	40355	15.8	1000
10	40604	15.9	1000
10	40879	16	1000
10	41146	16.1	1000
[...]
45	40896	16	9800
45	41163	16.1	9805
45	41428	16.2	9810
45	41693	16.3	9815
45	41944	16.4	9820
45	42199	16.5	9825
45	42403	16.6	9830
45	42643	16.7	9835
45	42896	16.8	9840
45	43164	16.9	9845
45	43402	17	9850
45	43656	17.1	9855
45	43892	17.2	9860
45	44135	17.3	9865
45	44370	17.4	9870
45	44608	17.5	9875
45	44851	17.6	9880
45	45069	17.7	9885
45	45311	17.8	9890
45	45586	17.9	9895
45	45831	18	9900
45	46076	18.1	9905
45	46331	18.2	9910
45	46560	18.3	9915
45	46818	18.4	9920
45	47064	18.5	9925
45	47168	18.553002507	9927.65012535
45	47319	18.6	9930
45	47560	18.7	9935
45	47798	18.8	9940
45	48051	18.9	9945
45	48311	19	9950
45	48577	19.1	9955
45	48826	19.2	9960
45	49082	19.3	9965
45	49326	19.4	9970
45	49593	19.5	9975
45	49843	19.6	9980
45	50086	19.7	9985
45	50319	19.8	9990
45	50534	19.9	9995
45	50767	20	10000
45	51005	20.1	5
45	51253	20.2	10
45	51501	20.3	15
45	51768	20.4	20
45	52026	20.5	25
45	52271	20.6	30
45	52511	20.7	35
45	52732	20.8	40
45	52985	20.9	45
45	53202	21	50
45	53472	21.1	55
45	53719	21.2	60
45	54002	21.3	65
45	54242	21.4	70
45	54512	21.5	75
45	54758	21.6	80
45	55021	21.7	85
45	55259	21.8	90
45	55493	21.9	95
45	55747	22	100
45	55985	22.1	105
45	56215	22.2	110
45	56480	22.3	115
45	56721	22.4	120
45	56985	22.5	125
45	57230	22.6	130
45	57498	22.7	135
45	57752	22.8	140
45	57980	22.9	145
45	58234	23	150
45	58479	23.1	155
45	58702	23.2	160
45	58955	23.3	165
45	59187	23.4	170
45	59460	23.5	175
45	59705	23.6	180
45	59953	23.7	185
45	60214	23.8	190
45	60468	23.9	195
45	60722	24	200
45	60969	24.1	205
45	61205	24.2	210
45	61425	24.3	215
45	61661	24.4	220
45	61923	24.5	225
45	62171	24.6	230
45	62440	24.7	235
45	62682	24.8	240
45	62929	24.9	245
45	63200	25	250
46	1929	0.3	7000
46	2158	0.4	7000
46	2385	0.5	7000
46	2637	0.6	7000
46	2873	0.7	7000
46	3119	0.8	7000
46	3374	0.9	7000
46	3637	1	7000
46	3858	1.1	7000
46	4111	1.2	7000
46	4369	1.3	7000
46	4615	1.4	7000
46	4857	1.5	7000
46	5108	1.6	7000
46	5369	1.7	7000
46	5593	1.8	7000
46	5835	1.9	7000
46	6094	2	7000
46	6334	2.1	7000
46	6590	2.2	7000
46	6829	2.3	7000
46	7082	2.4	7000
46	7358	2.5	7000
46	7613	2.6	7000
46	7871	2.7	7000
46	8121	2.8	7000
46	8385	2.9	7000
46	8633	3	7000
46	8901	3.1	7000
46	9168	3.2	7000
46	9399	3.3	7000
46	9604	3.4	7000
46	9844	3.5	7000
46	10098	3.6	7000
46	10336	3.7	7000
46	10584	3.8	7000
46	10836	3.9	7000
46	11082	4	7000
46	11342	4.1	7000
46	11606	4.2	7000
46	11845	4.3	7000
46	12101	4.4	7000
46	12317	4.5	7000
46	12551	4.6	7000
46	12809	4.7	7000
46	13061	4.8	7000
46	13305	4.9	7000
46	13566	5	7000
46	13836	5.1	7000
46	14092	5.2	7000
46	14333	5.3	7000
46	14608	5.4	7000
46	14869	5.5	7000
46	15069	5.6	7000
46	15319	5.7	7000
46	15569	5.8	7000
46	15838	5.9	7000
46	16068	6	7000
46	16324	6.1	7000
46	16574	6.2	7000
46	16835	6.3	7000
46	17102	6.4	7000
46	17350	6.5	7000
46	17602	6.6	7000
46	17800	6.7	7000
46	18065	6.8	7000
46	18312	6.9	7000
46	18530	7	7000
46	18798	7.1	7000
46	19050	7.2	7000
46	19292	7.3	7000
46	19578	7.4	7000
46	19824	7.5	7000
46	20084	7.6	7000
46	20201	7.664032155	7000
46	20325	7.7	7000
46	20569	7.8	7000
46	20824	7.9	7000
46	21088	8	7000
46	21347	8.1	7000
46	21609	8.2	7000
46	21862	8.3	7000
46	22094	8.4	7000
46	22320	8.5	7000
46	22547	8.6	7000
46	22788	8.7	7000
46	23035	8.8	7000
46	23275	8.9	7000
46	23532	9	7000
46	23788	9.1	7000
46	24047	9.2	7000
46	24293	9.3	7000
46	24542	9.4	7000
46	24803	9.5	7000
46	25075	9.6	7000
46	25293	9.7	7000
46	25566	9.8	7000
46	25819	9.9	7000
46	26022	10	7000
46	26250	10.1	7000
46	26499	10.2	7000
46	26719	10.3	7000
46	26972	10.4	7000
46	27203	10.5	7000
46	27444	10.6	7000
46	27672	10.7	7000
46	27922	10.8	7000
46	28180	10.9	7000
46	28412	11	7000
46	28655	11.1	7000
46	28919	11.2	7000
46	29174	11.3	7000
46	29426	11.4	7000
46	29690	11.5	7000
46	29924	11.6	7000
46	30182	11.7	7000
46	30431	11.8	7000
46	30663	11.9	7000
46	30919	12	7000
46	31195	12.1	7000
46	31448	12.2	7000
46	31712	12.3	7000
46	31955	12.4	7000
46	32226	12.5	7000
46	32457	12.6	7000
46	32705	12.7	7000
46	32934	12.8	7000
46	33189	12.9	7000
46	33461	13	7000
46	33728	13.1	7000
46	33968	13.2	7000
46	34182	13.3	7000
46	34422	13.4	7000
46	34661	13.5	7000
46	34926	13.6	7000
46	35168	13.7	7000
46	35404	13.8	7000
46	35625	13.9	7000
46	35868	14	7000
46	36117	14.1	7000
46	36393	14.2	7000
46	36639	14.3	7000
46	36855	14.4	7000
46	37115	14.5	7000
46	37396	14.6	7000
46	37644	14.7	7000
46	37896	14.8	7000
46	38159	14.9	7000
46	38408	15	7000
46	38646	15.1	7000
46	38908	15.2	7000
46	39165	15.3	7000
46	39421	15.4	7000
46	39636	15.5	7000
46	39879	15.6	7000
46	40149	15.7	7000
46	40373	15.8	7000
46	40622	15.9	7000
46	40897	16	7000
46	41164	16.1	7000
46	41429	16.2	7000
46	41694	16.3	7000
46	41945	16.4	7000
46	42200	16.5	7000
46	42404	16.6	7000
46	42644	16.7	7000
46	42897	16.8	7000
46	43165	16.9	7000
46	43403	17	7000
46	43657	17.1	7000
46	43893	17.2	7000
46	44136	17.3	7000
46	44371	17.4	7000
46	44609	17.5	7000
46	44852	17.6	7000
46	45070	17.7	7000
46	45312	17.8	7000
46	45587	17.9	7000
46	45832	18	7000
46	46077	18.1	7000
46	46332	18.2	7000
46	46561	18.3	7000
46	46819	18.4	7000
46	47065	18.5	7000
46	47168	18.553002507	7000
46	47320	18.6	7000
46	47561	18.7	7000
46	47799	18.8	7000
46	48052	18.9	7000
46	48312	19	7000
46	48578	19.1	7000
46	48827	19.2	7000
46	49083	19.3	7000
46	49327	19.4	7000
46	49594	19.5	7000
46	49844	19.6	7000
46	50087	19.7	7000
46	50320	19.8	7000
46	50535	19.9	7000
46	50768	20	7000
46	51006	20.1	7000
46	51254	20.2	7000
46	51502	20.3	7000
46	51769	20.4	7000
46	52027	20.5	7000
46	52272	20.6	7000
46	52512	20.7	7000
46	52733	20.8	7000
46	52986	20.9	7000
46	53203	21	7000
46	53473	21.1	7000
46	53720	21.2	7000
46	54003	21.3	7000
46	54243	21.4	7000
46	54513	21.5	7000
46	54759	21.6	7000
46	55022	21.7	7000
46	55260	21.8	7000
46	55494	21.9	7000
46	55748	22	7000
46	55986	22.1	7000
46	56216	22.2	7000
46	56481	22.3	7000
46	56722	22.4	7000
46	56986	22.5	7000
46	57231	22.6	7000
46	57499	22.7	7000
46	57753	22.8	7000
46	57981	22.9	7000
46	58235	23	7000
46	58480	23.1	7000
46	58703	23.2	7000
46	58956	23.3	7000
46	59188	23.4	7000
46	59461	23.5	7000
46	59706	23.6	7000
46	59954	23.7	7000
46	60215	23.8	7000
46	60469	23.9	7000
46	60723	24	7000
46	60970	24.1	7000
46	61206	24.2	7000
46	61426	24.3	7000
46	61662	24.4	7000
46	61924	24.5	7000
46	62172	24.6	7000
46	62441	24.7	7000
46	62683	24.8	7000
46	62930	24.9	7000
46	63201	25	7000
47	1929	0.3	9015
47	2158	0.4	9020
47	2385	0.5	9025
47	2637	0.6	9030
47	2873	0.7	9035
47	3119	0.8	9040
47	3374	0.9	9045
47	3637	1	9050
47	3858	1.1	9055
47	4111	1.2	9060
47	4369	1.3	9065
47	4615	1.4	9070
47	4857	1.5	9075
47	5108	1.6	9080
47	5369	1.7	9085
47	5593	1.8	9090
47	5835	1.9	9095
47	6094	2	9100
47	6334	2.1	9105
47	6590	2.2	9110
47	6829	2.3	9115
47	7082	2.4	9120
47	7358	2.5	9125
47	7613	2.6	9130
47	7871	2.7	9135
47	8121	2.8	9140
47	8385	2.9	9145
47	8633	3	9150
47	8901	3.1	9155
47	9168	3.2	9160
47	9399	3.3	9165
47	9604	3.4	9170
47	9844	3.5	9175
47	10098	3.6	9180
47	10336	3.7	9185
47	10584	3.8	9190
47	10836	3.9	9195
47	11082	4	9200
47	11342	4.1	9205
47	11606	4.2	9210
47	11845	4.3	9215
47	12101	4.4	9220
47	12317	4.5	9225
47	12551	4.6	9230
47	12809	4.7	9235
47	13061	4.8	9240
47	13305	4.9	9245
47	13566	5	9250
47	13836	5.1	9255
47	14092	5.2	9260
47	14333	5.3	9265
47	14608	5.4	9270
47	14869	5.5	9275
47	15069	5.6	9280
47	15319	5.7	9285
47	15569	5.8	9290
47	15838	5.9	9295
47	16068	6	9300
47	16324	6.1	9305
47	16574	6.2	9310
47	16835	6.3	9315
47	17102	6.4	9320
47	17350	6.5	9325
47	17602	6.6	9330
47	17800	6.7	9335
47	18065	6.8	9340
47	18312	6.9	9345
47	18530	7	9350
47	18798	7.1	9355
47	19050	7.2	9360
47	19292	7.3	9365
47	19578	7.4	9370
47	19824	7.5	9375
47	20084	7.6	9380
47	20201	7.664032155	9383.20160775
47	20325	7.7	9385
47	20569	7.8	9390
47	20824	7.9	9395
47	21088	8	9400
47	21347	8.1	9405
47	21609	8.2	9410
47	21862	8.3	9415
47	22094	8.4	9420
47	22320	8.5	9425
47	22547	8.6	9430
47	22788	8.7	9435
47	23035	8.8	9440
47	23275	8.9	9445
47	23532	9	9450
47	23788	9.1	9455
47	24047	9.2	9460
47	24293	9.3	9465
47	24542	9.4	9470
47	24803	9.5	9475
47	25075	9.6	9480
47	25293	9.7	9485
47	25566	9.8	9490
47	25819	9.9	9495
47	26022	10	9500
47	26250	10.1	9505
47	26499	10.2	9510
47	26719	10.3	9515
47	26972	10.4	9520
47	27203	10.5	9525
47	27444	10.6	9530
47	27672	10.7	9535
47	27922	10.8	9540
47	28180	10.9	9545
47	28412	11	9550
47	28655	11.1	9555
47	28919	11.2	9560
47	29174	11.3	9565
47	29426	11.4	9570
47	29690	11.5	9575
47	29924	11.6	9580
47	30182	11.7	9585
47	30431	11.8	9590
47	30663	11.9	9595
47	30919	12	9600
47	31195	12.1	9605
47	31448	12.2	9610
47	31712	12.3	9615
47	31955	12.4	9620
47	32226	12.5	9625
47	32457	12.6	9630
47	32705	12.7	9635
47	32934	12.8	9640
47	33189	12.9	9645
47	33461	13	9650
47	33728	13.1	9655
47	33968	13.2	9660
47	34182	13.3	9665
47	34422	13.4	9670
47	34661	13.5	9675
47	34926	13.6	9680
47	35168	13.7	9685
47	35404	13.8	9690
47	35625	13.9	9695
47	35868	14	9700
47	36117	14.1	9705
47	36393	14.2	9710
47	36639	14.3	9715
47	36855	14.4	9720
47	37115	14.5	9725
47	37396	14.6	9730
47	37644	14.7	9735
47	37896	14.8	9740
47	38159	14.9	9745
47	38408	15	9750
47	38646	15.1	9755
47	38908	15.2	9760
47	39165	15.3	9765
47	39421	15.4	9770
47	39636	15.5	9775
47	39879	15.6	9780
47	40149	15.7	9785
47	40373	15.8	9790
47	40622	15.9	9795
47	40897	16	9800
47	41164	16.1	9805
47	41429	16.2	9810
47	41694	16.3	9815
47	41945	16.4	9820
47	42200	16.5	9825
47	42404	16.6	9830
47	42644	16.7	9835
47	42897	16.8	9840
47	43165	16.9	9845
47	43403	17	9850
47	43657	17.1	9855
47	43893	17.2	9860
47	44136	17.3	9865
47	44371	17.4	9870
47	44609	17.5	9875
47	44852	17.6	9880
47	45070	17.7	9885
47	45312	17.8	9890
47	45587	17.9	9895
47	45832	18	9900
47	46077	18.1	9905
47	46332	18.2	9910
47	46561	18.3	9915
47	46819	18.4	9920
47	47065	18.5	9925
47	47168	18.553002507	9927.65012535
47	47320	18.6	9930
47	47561	18.7	9935
47	47799	18.8	9940
47	48052	18.9	9945
47	48312	19	9950
47	48578	19.1	9955
47	48827	19.2	9960
47	49083	19.3	9965
47	49327	19.4	9970
47	49594	19.5	9975
47	49844	19.6	9980
47	50087	19.7	9985
47	50320	19.8	9990
47	50535	19.9	9995
47	50768	20	10000
47	51006	20.1	5
47	51254	20.2	10
47	51502	20.3	15
47	51769	20.4	20
47	52027	20.5	25
47	52272	20.6	30
47	52512	20.7	35
47	52733	20.8	40
47	52986	20.9	45
47	53203	21	50
47	53473	21.1	55
47	53720	21.2	60
47	54003	21.3	65
47	54243	21.4	70
47	54513	21.5	75
47	54759	21.6	80
47	55022	21.7	85
47	55260	21.8	90
47	55494	21.9	95
47	55748	22	100
47	55986	22.1	105
47	56216	22.2	110
47	56481	22.3	115
47	56722	22.4	120
47	56986	22.5	125
47	57231	22.6	130
47	57499	22.7	135
47	57753	22.8	140
47	57981	22.9	145
47	58235	23	150
47	58480	23.1	155
47	58703	23.2	160
47	58956	23.3	165
47	59188	23.4	170
47	59461	23.5	175
47	59706	23.6	180
47	59954	23.7	185
47	60215	23.8	190
47	60469	23.9	195
47	60723	24	200
47	60970	24.1	205
47	61206	24.2	210
47	61426	24.3	215
47	61662	24.4	220
47	61924	24.5	225
47	62172	24.6	230
47	62441	24.7	235
47	62683	24.8	240
47	62930	24.9	245
47	63201	25	250
48	1930	0.3	9000
48	2159	0.4	9000
48	2386	0.5	9000
48	2638	0.6	9000
48	2874	0.7	9000
48	3120	0.8	9000
48	3375	0.9	9000
48	3638	1	9000
48	3859	1.1	9000
48	4112	1.2	9000
48	4370	1.3	9000
48	4616	1.4	9000
48	4858	1.5	9000
48	5109	1.6	9000
48	5370	1.7	9000
48	5594	1.8	9000
48	5836	1.9	9000
48	6095	2	9000
48	6335	2.1	9000
48	6591	2.2	9000
48	6830	2.3	9000
48	7083	2.4	9000
48	7359	2.5	9000
48	7614	2.6	9000
48	7872	2.7	9000
48	8122	2.8	9000
48	8386	2.9	9000
48	8634	3	9000
48	8902	3.1	9000
48	9169	3.2	9000
48	9400	3.3	9000
48	9605	3.4	9000
48	9845	3.5	9000
48	10099	3.6	9000
48	10337	3.7	9000
48	10585	3.8	9000
48	10837	3.9	9000
48	11083	4	9000
48	11343	4.1	9000
48	11607	4.2	9000
48	11846	4.3	9000
48	12102	4.4	9000
48	12318	4.5	9000
48	12552	4.6	9000
48	12810	4.7	9000
48	13062	4.8	9000
48	13306	4.9	9000
48	13567	5	9000
48	13837	5.1	9000
48	14093	5.2	9000
48	14334	5.3	9000
48	14609	5.4	9000
48	14870	5.5	9000
48	15070	5.6	9000
48	15320	5.7	9000
48	15570	5.8	9000
48	15839	5.9	9000
48	16069	6	9000
48	16325	6.1	9000
48	16575	6.2	9000
48	16836	6.3	9000
48	17103	6.4	9000
48	17351	6.5	9000
48	17603	6.6	9000
48	17801	6.7	9000
48	18066	6.8	9000
48	18313	6.9	9000
48	18531	7	9000
48	18799	7.1	9000
48	19051	7.2	9000
48	19293	7.3	9000
48	19579	7.4	9000
48	19825	7.5	9000
48	20085	7.6	9000
48	20201	7.664032155	9000
48	20326	7.7	9000
48	20570	7.8	9000
48	20825	7.9	9000
48	21089	8	9000
48	21348	8.1	9000
48	21610	8.2	9000
48	21863	8.3	9000
48	22095	8.4	9000
48	22321	8.5	9000
48	22548	8.6	9000
48	22789	8.7	9000
48	23036	8.8	9000
48	23276	8.9	9000
48	23533	9	9000
48	23789	9.1	9000
48	24048	9.2	9000
48	24294	9.3	9000
48	24543	9.4	9000
48	24804	9.5	9000
48	25076	9.6	9000
48	25294	9.7	9000
48	25567	9.8	9000
48	25820	9.9	9000
48	26023	10	9000
48	26251	10.1	9000
48	26500	10.2	9000
48	26720	10.3	9000
48	26973	10.4	9000
48	27204	10.5	9000
48	27445	10.6	9000
48	27673	10.7	9000
48	27923	10.8	9000
48	28181	10.9	9000
48	28413	11	9000
48	28656	11.1	9000
48	28920	11.2	9000
48	29175	11.3	9000
48	29427	11.4	9000
48	29691	11.5	9000
48	29925	11.6	9000
48	30183	11.7	9000
48	30432	11.8	9000
48	30664	11.9	9000
48	30920	12	9000
48	31196	12.1	9000
48	31449	12.2	9000
48	31713	12.3	9000
48	31956	12.4	9000
48	32227	12.5	9000
48	32458	12.6	9000
48	32706	12.7	9000
48	32935	12.8	9000
48	33190	12.9	9000
48	33462	13	9000
48	33729	13.1	9000
48	33969	13.2	9000
48	34183	13.3	9000
48	34423	13.4	9000
48	34662	13.5	9000
48	34927	13.6	9000
48	35169	13.7	9000
48	35405	13.8	9000
48	35626	13.9	9000
48	35869	14	9000
48	36118	14.1	9000
48	36394	14.2	9000
48	36640	14.3	9000
48	36856	14.4	9000
48	37116	14.5	9000
48	37397	14.6	9000
48	37645	14.7	9000
48	37897	14.8	9000
48	38160	14.9	9000
48	38409	15	9000
48	38647	15.1	9000
48	38909	15.2	9000
48	39166	15.3	9000
48	39422	15.4	9000
48	39637	15.5	9000
48	39880	15.6	9000
48	40150	15.7	9000
48	40374	15.8	9000
48	40623	15.9	9000
48	40898	16	9000
48	41165	16.1	9000
48	41430	16.2	9000
48	41695	16.3	9000
48	41946	16.4	9000
48	42201	16.5	9000
48	42405	16.6	9000
48	42645	16.7	9000
48	42898	16.8	9000
48	43166	16.9	9000
48	43404	17	9000
48	43658	17.1	9000
48	43894	17.2	9000
48	44137	17.3	9000
48	44372	17.4	9000
48	44610	17.5	9000
48	44853	17.6	9000
48	45071	17.7	9000
48	45313	17.8	9000
48	45588	17.9	9000
48	45833	18	9000
48	46078	18.1	9000
48	46333	18.2	9000
48	46562	18.3	9000
48	46820	18.4	9000
48	47066	18.5	9000
48	47168	18.553002507	9000
48	47321	18.6	9000
48	47562	18.7	9000
48	47800	18.8	9000
48	48053	18.9	9000
48	48313	19	9000
48	48579	19.1	9000
48	48828	19.2	9000
48	49084	19.3	9000
48	49328	19.4	9000
48	49595	19.5	9000
48	49845	19.6	9000
48	50088	19.7	9000
48	50321	19.8	9000
48	50536	19.9	9000
48	50769	20	9000
48	51007	20.1	9000
48	51255	20.2	9000
48	51503	20.3	9000
48	51770	20.4	9000
48	52028	20.5	9000
48	52273	20.6	9000
48	52513	20.7	9000
48	52734	20.8	9000
48	52987	20.9	9000
48	53204	21	9000
48	53474	21.1	9000
48	53721	21.2	9000
48	54004	21.3	9000
48	54244	21.4	9000
48	54514	21.5	9000
48	54760	21.6	9000
48	55023	21.7	9000
48	55261	21.8	9000
48	55495	21.9	9000
48	55749	22	9000
48	55987	22.1	9000
48	56217	22.2	9000
48	56482	22.3	9000
48	56723	22.4	9000
48	56987	22.5	9000
48	57232	22.6	9000
48	57500	22.7	9000
48	57754	22.8	9000
48	57982	22.9	9000
48	58236	23	9000
48	58481	23.1	9000
48	58704	23.2	9000
48	58957	23.3	9000
48	59189	23.4	9000
48	59462	23.5	9000
48	59707	23.6	9000
48	59955	23.7	9000
48	60216	23.8	9000
48	60470	23.9	9000
48	60724	24	9000
48	60971	24.1	9000
48	61207	24.2	9000
48	61427	24.3	9000
48	61663	24.4	9000
48	61925	24.5	9000
48	62173	24.6	9000
48	62442	24.7	9000
48	62684	24.8	9000
48	62931	24.9	9000
48	63202	25	9000
49	1930	0.3	9015
49	2159	0.4	9020
49	2386	0.5	9025
49	2638	0.6	9030
49	2874	0.7	9035
49	3120	0.8	9040
49	3375	0.9	9045
49	3638	1	9050
49	3859	1.1	9055
49	4112	1.2	9060
49	4370	1.3	9065
49	4616	1.4	9070
49	4858	1.5	9075
49	5109	1.6	9080
49	5370	1.7	9085
49	5594	1.8	9090
49	5836	1.9	9095
49	6095	2	9100
49	6335	2.1	9105
49	6591	2.2	9110
49	6830	2.3	9115
49	7083	2.4	9120
49	7359	2.5	9125
49	7614	2.6	9130
49	7872	2.7	9135
49	8122	2.8	9140
49	8386	2.9	9145
49	8634	3	9150
49	8902	3.1	9155
49	9169	3.2	9160
49	9400	3.3	9165
49	9605	3.4	9170
49	9845	3.5	9175
49	10099	3.6	9180
49	10337	3.7	9185
49	10585	3.8	9190
49	10837	3.9	9195
49	11083	4	9200
49	11343	4.1	9205
49	11607	4.2	9210
49	11846	4.3	9215
49	12102	4.4	9220
49	12318	4.5	9225
49	12552	4.6	9230
49	12810	4.7	9235
49	13062	4.8	9240
49	13306	4.9	9245
49	13567	5	9250
49	13837	5.1	9255
49	14093	5.2	9260
49	14334	5.3	9265
49	14609	5.4	9270
49	14870	5.5	9275
49	15070	5.6	9280
49	15320	5.7	9285
49	15570	5.8	9290
49	15839	5.9	9295
49	16069	6	9300
49	16325	6.1	9305
49	16575	6.2	9310
49	16836	6.3	9315
49	17103	6.4	9320
49	17351	6.5	9325
49	17603	6.6	9330
49	17801	6.7	9335
49	18066	6.8	9340
49	18313	6.9	9345
49	18531	7	9350
49	18799	7.1	9355
49	19051	7.2	9360
49	19293	7.3	9365
49	19579	7.4	9370
49	19825	7.5	9375
49	20085	7.6	9380
49	20201	7.664032155	9383.20160775
49	20326	7.7	9385
49	20570	7.8	9390
49	20825	7.9	9395
49	21089	8	9400
49	21348	8.1	9405
49	21610	8.2	9410
49	21863	8.3	9415
49	22095	8.4	9420
49	22321	8.5	9425
49	22548	8.6	9430
49	22789	8.7	9435
49	23036	8.8	9440
49	23276	8.9	9445
49	23533	9	9450
49	23789	9.1	9455
49	24048	9.2	9460
49	24294	9.3	9465
49	24543	9.4	9470
49	24804	9.5	9475
49	25076	9.6	9480
49	25294	9.7	9485
49	25567	9.8	9490
49	25820	9.9	9495
49	26023	10	9500
49	26251	10.1	9505
49	26500	10.2	9510
49	26720	10.3	9515
49	26973	10.4	9520
49	27204	10.5	9525
49	27445	10.6	9530
49	27673	10.7	9535
49	27923	10.8	9540
49	28181	10.9	9545
49	28413	11	9550
49	28656	11.1	9555
49	28920	11.2	9560
49	29175	11.3	9565
49	29427	11.4	9570
49	29691	11.5	9575
49	29925	11.6	9580
49	30183	11.7	9585
49	30432	11.8	9590
49	30664	11.9	9595
49	30920	12	9600
49	31196	12.1	9605
49	31449	12.2	9610
49	31713	12.3	9615
49	31956	12.4	9620
49	32227	12.5	9625
49	32458	12.6	9630
49	32706	12.7	9635
49	32935	12.8	9640
49	33190	12.9	9645
49	33462	13	9650
49	33729	13.1	9655
49	33969	13.2	9660
49	34183	13.3	9665
49	34423	13.4	9670
49	34662	13.5	9675
49	34927	13.6	9680
49	35169	13.7	9685
49	35405	13.8	9690
49	35626	13.9	9695
49	35869	14	9700
49	36118	14.1	9705
49	36394	14.2	9710
49	36640	14.3	9715
49	36856	14.4	9720
49	37116	14.5	9725
49	37397	14.6	9730
49	37645	14.7	9735
49	37897	14.8	9740
49	38160	14.9	9745
49	38409	15	9750
49	38647	15.1	9755
49	38909	15.2	9760
49	39166	15.3	9765
49	39422	15.4	9770
49	39637	15.5	9775
49	39880	15.6	9780
49	40150	15.7	9785
49	40374	15.8	9790
49	40623	15.9	9795
49	40898	16	9800
49	41165	16.1	9805
49	41430	16.2	9810
49	41695	16.3	9815
49	41946	16.4	9820
49	42201	16.5	9825
49	42405	16.6	9830
49	42645	16.7	9835
49	42898	16.8	9840
49	43166	16.9	9845
49	43404	17	9850
49	43658	17.1	9855
49	43894	17.2	9860
49	44137	17.3	9865
49	44372	17.4	9870
49	44610	17.5	9875
49	44853	17.6	9880
49	45071	17.7	9885
49	45313	17.8	9890
49	45588	17.9	9895
49	45833	18	9900
49	46078	18.1	9905
49	46333	18.2	9910
49	46562	18.3	9915
49	46820	18.4	9920
49	47066	18.5	9925
49	47168	18.553002507	9927.65012535
49	47321	18.6	9930
49	47562	18.7	9935
49	47800	18.8	9940
49	48053	18.9	9945
49	48313	19	9950
49	48579	19.1	9955
49	48828	19.2	9960
49	49084	19.3	9965
49	49328	19.4	9970
49	49595	19.5	9975
49	49845	19.6	9980
49	50088	19.7	9985
49	50321	19.8	9990
49	50536	19.9	9995
49	50769	20	10000
49	51007	20.1	5
49	51255	20.2	10
49	51503	20.3	15
49	51770	20.4	20
49	52028	20.5	25
49	52273	20.6	30
49	52513	20.7	35
49	52734	20.8	40
49	52987	20.9	45
49	53204	21	50
49	53474	21.1	55
49	53721	21.2	60
49	54004	21.3	65
49	54244	21.4	70
49	54514	21.5	75
49	54760	21.6	80
49	55023	21.7	85
49	55261	21.8	90
49	55495	21.9	95
49	55749	22	100
49	55987	22.1	105
49	56217	22.2	110
49	56482	22.3	115
49	56723	22.4	120
49	56987	22.5	125
49	57232	22.6	130
49	57500	22.7	135
49	57754	22.8	140
49	57982	22.9	145
49	58236	23	150
49	58481	23.1	155
49	58704	23.2	160
49	58957	23.3	165
49	59189	23.4	170
49	59462	23.5	175
49	59707	23.6	180
49	59955	23.7	185
49	60216	23.8	190
49	60470	23.9	195
49	60724	24	200
49	60971	24.1	205
49	61207	24.2	210
49	61427	24.3	215
49	61663	24.4	220
49	61925	24.5	225
49	62173	24.6	230
49	62442	24.7	235
49	62684	24.8	240
49	62931	24.9	245
49	63202	25	250
108	63215	25	1
192	63203	25	1
193	63209	25	1
194	63212	25	1
195	63218	25	1

